==============================================================================
                AMR-Wind (https://github.com/exawind/amr-wind)

  AMR-Wind version :: caebcd1-DIRTY
  AMR-Wind Git SHA :: caebcd1f2841cf780ea3dcd566f05dbc21bc476f-DIRTY
  AMReX version    :: 23.04-23-g2f47d132d71c

  Exec. time       :: Mon Aug  7 10:29:46 2023
  Build time       :: Jul 18 2023 12:15:26
  C++ compiler     :: GNU 9.3.0

  MPI              :: ON    (Num. ranks = 360)
  GPU              :: OFF
  OpenMP           :: OFF

  Enabled third-party libraries: 
    NetCDF    4.9.2
    HYPRE     2.28.0
    OpenFAST  

           This software is released under the BSD 3-clause license.           
 See https://github.com/Exawind/amr-wind/blob/development/LICENSE for details. 
------------------------------------------------------------------------------

MPI initialized with 360 MPI processes
MPI initialized with thread support level 0
AMReX (23.04-23-g2f47d132d71c) initialized
Initializing AMR-Wind ...
Initializing boundary conditions for velocity_mueff
Initializing boundary conditions for velocity
Initializing boundary conditions for density
Initializing boundary conditions for p
Initializing boundary conditions for velocity_src_term
Initializing boundary conditions for gp
Creating PDESystem instance: ICNS-Godunov
Creating Physics instance: FreeStream
Creating Physics instance: Actuator
Initializing boundary conditions for mu_turb
Initializing boundary conditions for wall_dist
using default CellConsLinear interpolation for TKE fillpatch
Initializing boundary conditions for tke_mueff
Initializing boundary conditions for tke
Initializing boundary conditions for tke_src_term
Creating PDESystem instance: TKE-Godunov
Initializing boundary conditions for sdr_mueff
Initializing boundary conditions for sdr
Initializing boundary conditions for sdr_src_term
Creating PDESystem instance: SDR-Godunov
Creating TurbulenceModel instance: KOmegaSST-ConstTransport
Creating PostProcessBase instance: Sampling
Initializing I/O manager
Creating UDF instance: ConstValue
Creating UDF instance: ConstValue
Creating UDF instance: ConstValue
Creating UDF instance: ConstValue
Creating UDF instance: ConstValue
Creating ActuatorModel instance: JoukowskyDisk
Creating mesh... done
Grid summary: 
  Level 0   1458 grids  47775744 cells  100 % of domain
            smallest grid: 32 x 32 x 32  biggest grid: 32 x 32 x 32

For mflux_type, default is upwind
Creating MomentumSource instance: ActuatorForcing
Creating TKESource instance: KwSSTSrc
Creating SDRSource instance: SDRSrc
Creating SamplerBase instance: PlaneSampler
Begin initial projection
  Nodal_projection               0                     0                     0
Completed initial projection

Begin initial pressure iterations. Num. iters = 3
dt: 0.05
CFL: 0.04 (conv: 0.04 diff: 0 src: 0 )

Godunov:
  System                     Iters      Initial residual        Final residual
  ----------------------------------------------------------------------------
  MAC_projection                 0       1.088018564e-16       1.088018564e-16
  tke_solve                      3          0.2332460633       1.232902669e-12
  sdr_solve                      2             316.96875        2.15129603e-09
  velocity_solve                 0                     0                     0
  Nodal_projection               0                     0                     0

Godunov:
  System                     Iters      Initial residual        Final residual
  ----------------------------------------------------------------------------
  MAC_projection                 0       1.088018564e-16       1.088018564e-16
  tke_solve                      3          0.2332460633       1.232902669e-12
  sdr_solve                      2             316.96875        2.15129603e-09
  velocity_solve                 0                     0                     0
  Nodal_projection               0                     0                     0

Godunov:
  System                     Iters      Initial residual        Final residual
  ----------------------------------------------------------------------------
  MAC_projection                 0       1.088018564e-16       1.088018564e-16
  tke_solve                      3          0.2332460633       1.232902669e-12
  sdr_solve                      2             316.96875        2.15129603e-09
  velocity_solve                 0                     0                     0
  Nodal_projection               0                     0                     0
Completed initial pressure iterations

Writing plot file       plt00000 at time 0
Initialization successful. Time elapsed = 4.735760635

Begin simulation: 
  Run till 600 seconds 
  Fixed timestepping with dt = 0.05; max. CFL from inputs = 0.5

==============================================================================
Step: 1 dt: 0.05 Time: 0 to 0.05
CFL: 0.04 (conv: 0.04 diff: 0 src: 0 )

Godunov:
  System                     Iters      Initial residual        Final residual
  ----------------------------------------------------------------------------
  MAC_projection                 9       0.0004712480159       5.973835386e-16
  tke_solve                      3          0.2332460633       1.232902669e-12
  sdr_solve                      2             316.96875        2.15129603e-09
  velocity_solve                 1       1.529383198e-08        7.26707583e-12
  Nodal_projection               6       0.0007342559231       6.680193694e-16

WallClockTime: 1 Pre: 0.023 Solve: 2.617 Post: 1.06e-05 Total: 2.64
Solve time per cell: 1.972e-05

==============================================================================
Step: 2 dt: 0.05 Time: 0.05 to 0.1
CFL: 0.0409183 (conv: 0.0400113 diff: 0 src: 0.0060921 )

Godunov:
  System                     Iters      Initial residual        Final residual
  ----------------------------------------------------------------------------
  MAC_projection                 7       0.0002052772728       5.596380987e-15
  tke_solve                      3         0.06258224364       1.323330334e-12
  sdr_solve                      3           80.41568266       2.989395398e-10
  velocity_solve                 1       9.191872152e-09       4.984457291e-12
  Nodal_projection               6        0.000756591469       6.745511939e-16

WallClockTime: 2 Pre: 0.0045 Solve: 2.594 Post: 8.63e-06 Total: 2.599
Solve time per cell: 1.955e-05

==============================================================================
Step: 3 dt: 0.05 Time: 0.1 to 0.15
CFL: 0.0403044 (conv: 0.0400218 diff: 0 src: 0.00337471 )

Godunov:
  System                     Iters      Initial residual        Final residual
  ----------------------------------------------------------------------------
  MAC_projection                 7       0.0002973694506       6.196118854e-15
  tke_solve                      3         0.03646578187       1.361660784e-12
  sdr_solve                      3             40.650261       4.985878377e-10
  velocity_solve                 1       1.061072474e-08       5.803357794e-12
  Nodal_projection               6       0.0007584288304       6.745914487e-16

WallClockTime: 3 Pre: 0.00416 Solve: 2.593 Post: 1.01e-05 Total: 2.597
Solve time per cell: 1.954e-05

==============================================================================
Step: 4 dt: 0.05 Time: 0.15 to 0.2
CFL: 0.0403149 (conv: 0.0400324 diff: 0 src: 0.00337475 )

Godunov:
  System                     Iters      Initial residual        Final residual
  ----------------------------------------------------------------------------
  MAC_projection                 7       0.0003798947438       6.393396216e-15
  tke_solve                      3         0.02854602956       1.390193516e-12
  sdr_solve                      3           27.43444772       6.007780939e-10
  velocity_solve                 1       1.239677161e-08       6.801670338e-12
  Nodal_projection               6       0.0007582429472        6.74575882e-16

WallClockTime: 4 Pre: 0.00418 Solve: 2.703 Post: 9.41e-06 Total: 2.708
Solve time per cell: 2.037e-05

==============================================================================
Step: 5 dt: 0.05 Time: 0.2 to 0.25
CFL: 0.0403255 (conv: 0.040043 diff: 0 src: 0.00337549 )

Godunov:
  System                     Iters      Initial residual        Final residual
  ----------------------------------------------------------------------------
  MAC_projection                 7       0.0004555946002       7.015799413e-15
  tke_solve                      3         0.02560668551       1.425803919e-12
  sdr_solve                      3           21.66623883       6.654943263e-10
  velocity_solve                 1       1.424613494e-08       7.828404591e-12
  Nodal_projection               6       0.0007577311808       6.745870357e-16

WallClockTime: 5 Pre: 0.00416 Solve: 2.593 Post: 9.04e-06 Total: 2.597
Solve time per cell: 1.954e-05

==============================================================================
Step: 6 dt: 0.05 Time: 0.25 to 0.3
CFL: 0.0403363 (conv: 0.0400537 diff: 0 src: 0.0033764 )

Godunov:
  System                     Iters      Initial residual        Final residual
  ----------------------------------------------------------------------------
  MAC_projection                 7       0.0005276867583       7.662738614e-15
  tke_solve                      3         0.02456017481       1.467381772e-12
  sdr_solve                      3           18.78057212       7.129301594e-10
  velocity_solve                 1       1.609681277e-08       8.860467915e-12
  Nodal_projection               6       0.0007573290358       6.745998992e-16

WallClockTime: 6 Pre: 0.00417 Solve: 2.596 Post: 1.03e-05 Total: 2.6
Solve time per cell: 1.956e-05

==============================================================================
Step: 7 dt: 0.05 Time: 0.3 to 0.35
CFL: 0.0403471 (conv: 0.0400644 diff: 0 src: 0.00337729 )

Godunov:
  System                     Iters      Initial residual        Final residual
  ----------------------------------------------------------------------------
  MAC_projection                 7       0.0005976365836       8.247891844e-15
  tke_solve                      3         0.02435080895       1.510985781e-12
  sdr_solve                      3           17.23034319       7.506457678e-10
  velocity_solve                 1       1.793077509e-08       9.887202168e-12
  Nodal_projection               6       0.0007573093436       6.745543182e-16

WallClockTime: 7 Pre: 0.00417 Solve: 2.593 Post: 9.52e-06 Total: 2.598
Solve time per cell: 1.954e-05

==============================================================================
Step: 8 dt: 0.05 Time: 0.35 to 0.4
CFL: 0.040358 (conv: 0.0400752 diff: 0 src: 0.00337812 )

Godunov:
  System                     Iters      Initial residual        Final residual
  ----------------------------------------------------------------------------
  MAC_projection                 7       0.0006662347514       8.530206655e-15
  tke_solve                      3          0.0245261201         1.5531465e-12
  sdr_solve                      4           16.36933845       4.121147867e-13
  velocity_solve                 1       1.974133568e-08       1.090327828e-11
  Nodal_projection               6       0.0007573098517       6.745823001e-16

WallClockTime: 8 Pre: 0.00414 Solve: 2.646 Post: 9.18e-06 Total: 2.65
Solve time per cell: 1.994e-05

==============================================================================
Step: 9 dt: 0.05 Time: 0.4 to 0.45
CFL: 0.0403689 (conv: 0.0400861 diff: 0 src: 0.00337886 )

Godunov:
  System                     Iters      Initial residual        Final residual
  ----------------------------------------------------------------------------
  MAC_projection                 7       0.0007345378513       8.922071202e-15
  tke_solve                      3         0.02486357138       1.588701393e-12
  sdr_solve                      4           15.88794643       4.263256415e-13
  velocity_solve                 1       2.152552803e-08       1.190691989e-11
  Nodal_projection               6       0.0007572761662        6.74584349e-16

WallClockTime: 9 Pre: 0.00415 Solve: 2.973 Post: 9.93e-06 Total: 2.977
Solve time per cell: 2.24e-05

==============================================================================
Step: 10 dt: 0.05 Time: 0.45 to 0.5
CFL: 0.0403798 (conv: 0.040097 diff: 0 src: 0.00337943 )

Godunov:
  System                     Iters      Initial residual        Final residual
  ----------------------------------------------------------------------------
  MAC_projection                 7       0.0008027730594       9.578619568e-15
  tke_solve                      3         0.02523845021       1.603883693e-12
  sdr_solve                      4           15.62358829       4.263256415e-13
  velocity_solve                 1       2.328185644e-08       1.289279794e-11
  Nodal_projection               6       0.0007574130013        6.74617729e-16

WallClockTime: 10 Pre: 0.00418 Solve: 2.644 Post: 9.92e-06 Total: 2.648
Solve time per cell: 1.992e-05

==============================================================================
Step: 11 dt: 0.05 Time: 0.5 to 0.55
CFL: 0.0403908 (conv: 0.0401079 diff: 0 src: 0.00338004 )

Godunov:
  System                     Iters      Initial residual        Final residual
  ----------------------------------------------------------------------------
  MAC_projection                 7       0.0008711841301       9.849000955e-15
  tke_solve                      3          0.0255975471       1.619260281e-12
  sdr_solve                      4           15.48564374       4.405364962e-13
  velocity_solve                 1       2.500948604e-08       1.386801785e-11
  Nodal_projection               6       0.0007578655781       6.746204637e-16

WallClockTime: 11 Pre: 0.00643 Solve: 2.678 Post: 8.99e-06 Total: 2.685
Solve time per cell: 2.018e-05

==============================================================================
Step: 12 dt: 0.05 Time: 0.55 to 0.6
CFL: 0.0404018 (conv: 0.0401189 diff: 0 src: 0.00338129 )

Godunov:
  System                     Iters      Initial residual        Final residual
  ----------------------------------------------------------------------------
  MAC_projection                 8       0.0009401904727       4.935932034e-16
  tke_solve                      3         0.02591640805       1.633027047e-12
  sdr_solve                      4           15.42168678       4.547473509e-13
  velocity_solve                 1       2.670561017e-08        1.48290269e-11
  Nodal_projection               6       0.0007581677072       6.746174271e-16

WallClockTime: 12 Pre: 0.00583 Solve: 2.641 Post: 9.32e-06 Total: 2.647
Solve time per cell: 1.99e-05

==============================================================================
Step: 13 dt: 0.05 Time: 0.6 to 0.65
CFL: 0.0404129 (conv: 0.0401298 diff: 0 src: 0.00338242 )

Godunov:
  System                     Iters      Initial residual        Final residual
  ----------------------------------------------------------------------------
  MAC_projection                 8        0.001000163047       5.153246807e-16
  tke_solve                      3          0.0261866509       1.644517855e-12
  sdr_solve                      4           15.40074776       4.547473509e-13
  velocity_solve                 1        2.83619741e-08       1.577227238e-11
  Nodal_projection               6       0.0007582581184       6.746362016e-16

WallClockTime: 13 Pre: 0.00418 Solve: 2.652 Post: 8.76e-06 Total: 2.656
Solve time per cell: 1.998e-05

==============================================================================
Step: 14 dt: 0.05 Time: 0.65 to 0.7
CFL: 0.0404239 (conv: 0.0401407 diff: 0 src: 0.00338347 )

Godunov:
  System                     Iters      Initial residual        Final residual
  ----------------------------------------------------------------------------
  MAC_projection                 8        0.001054929728       5.457602686e-16
  tke_solve                      3         0.02640854856       1.653566173e-12
  sdr_solve                      4           15.40435866       4.547473509e-13
  velocity_solve                 1       2.997938076e-08       1.669242522e-11
  Nodal_projection               6        0.000758281782       6.746536775e-16

WallClockTime: 14 Pre: 0.00415 Solve: 2.652 Post: 9.34e-06 Total: 2.656
Solve time per cell: 1.998e-05

==============================================================================
Step: 15 dt: 0.05 Time: 0.7 to 0.75
CFL: 0.040435 (conv: 0.0401517 diff: 0 src: 0.0033846 )

Godunov:
  System                     Iters      Initial residual        Final residual
  ----------------------------------------------------------------------------
  MAC_projection                 8        0.001107669049       5.631888185e-16
  tke_solve                      3         0.02658663001       1.660366289e-12
  sdr_solve                      4           15.42149849       4.689582056e-13
  velocity_solve                 1       3.155608219e-08       1.759481449e-11
  Nodal_projection               6       0.0007582748448       6.746426855e-16

WallClockTime: 15 Pre: 0.00419 Solve: 2.648 Post: 9.41e-06 Total: 2.652
Solve time per cell: 1.995e-05

==============================================================================
Step: 16 dt: 0.05 Time: 0.75 to 0.8
CFL: 0.040446 (conv: 0.0401625 diff: 0 src: 0.00338579 )

Godunov:
  System                     Iters      Initial residual        Final residual
  ----------------------------------------------------------------------------
  MAC_projection                 8        0.001158379225       5.926520125e-16
  tke_solve                      3         0.02672711803       1.665223515e-12
  sdr_solve                      4           15.44563457       4.689582056e-13
  velocity_solve                 1       3.309146912e-08       1.847055842e-11
  Nodal_projection               6       0.0007582529393       6.746470621e-16

WallClockTime: 16 Pre: 0.00414 Solve: 2.645 Post: 9.13e-06 Total: 2.65
Solve time per cell: 1.993e-05

==============================================================================
Step: 17 dt: 0.05 Time: 0.8 to 0.85
CFL: 0.040457 (conv: 0.0401734 diff: 0 src: 0.00338716 )

Godunov:
  System                     Iters      Initial residual        Final residual
  ----------------------------------------------------------------------------
  MAC_projection                 8        0.001209410805       6.150136823e-16
  tke_solve                      3         0.02683650374       1.668498673e-12
  sdr_solve                      4           15.47295109       4.689582056e-13
  velocity_solve                 1       3.458609399e-08       1.933031513e-11
  Nodal_projection               6       0.0007582242399       6.746718965e-16

WallClockTime: 17 Pre: 0.0042 Solve: 2.642 Post: 1.02e-05 Total: 2.647
Solve time per cell: 1.991e-05

==============================================================================
Step: 18 dt: 0.05 Time: 0.85 to 0.9
CFL: 0.040468 (conv: 0.0401842 diff: 0 src: 0.00338866 )

Godunov:
  System                     Iters      Initial residual        Final residual
  ----------------------------------------------------------------------------
  MAC_projection                 8        0.001271784171       6.425524175e-16
  tke_solve                      3         0.02692081682       1.670441563e-12
  sdr_solve                      4           15.50127486       4.689582056e-13
  velocity_solve                 1       3.604080412e-08       2.016875555e-11
  Nodal_projection               6       0.0007581788353       6.746629737e-16

WallClockTime: 18 Pre: 0.00416 Solve: 2.646 Post: 9.47e-06 Total: 2.65
Solve time per cell: 1.994e-05

==============================================================================
Step: 19 dt: 0.05 Time: 0.9 to 0.95
CFL: 0.0404789 (conv: 0.040195 diff: 0 src: 0.00339027 )

Godunov:
  System                     Iters      Initial residual        Final residual
  ----------------------------------------------------------------------------
  MAC_projection                 8        0.001329240571       6.696845769e-16
  tke_solve                      3         0.02698530853       1.671413008e-12
  sdr_solve                      4           15.52942006       4.689582056e-13
  velocity_solve                 1       3.745487653e-08        2.09858797e-11
  Nodal_projection               6        0.000758126565       6.747256542e-16

WallClockTime: 19 Pre: 0.00413 Solve: 2.65 Post: 8.88e-06 Total: 2.654
Solve time per cell: 1.997e-05

==============================================================================
Step: 20 dt: 0.05 Time: 0.95 to 1
CFL: 0.0404898 (conv: 0.0402056 diff: 0 src: 0.00339189 )

Godunov:
  System                     Iters      Initial residual        Final residual
  ----------------------------------------------------------------------------
  MAC_projection                 8        0.001380711686       6.776737916e-16
  tke_solve                      3          0.0270343683       1.671607297e-12
  sdr_solve                      4           15.55678822       4.689582056e-13
  velocity_solve                 1       3.882831479e-08       2.177991121e-11
  Nodal_projection               6       0.0007580703753       6.746845057e-16

WallClockTime: 20 Pre: 0.00415 Solve: 3.052 Post: 9.8e-06 Total: 3.057
Solve time per cell: 2.3e-05

==============================================================================
Step: 21 dt: 0.05 Time: 1 to 1.05
CFL: 0.0405006 (conv: 0.0402163 diff: 0 src: 0.0033934 )

Godunov:
  System                     Iters      Initial residual        Final residual
  ----------------------------------------------------------------------------
  MAC_projection                 7        0.001425256787       1.369967711e-14
  tke_solve                      3         0.02707156282       1.671218719e-12
  sdr_solve                      4           15.58312478       4.831690603e-13
  velocity_solve                 1       4.016241206e-08       2.255262643e-11
  Nodal_projection               6       0.0007580063916       6.746663416e-16

WallClockTime: 21 Pre: 0.0059 Solve: 2.632 Post: 8.66e-06 Total: 2.638
Solve time per cell: 1.983e-05

==============================================================================
Step: 22 dt: 0.05 Time: 1.05 to 1.1
CFL: 0.0405113 (conv: 0.0402268 diff: 0 src: 0.00339477 )

Godunov:
  System                     Iters      Initial residual        Final residual
  ----------------------------------------------------------------------------
  MAC_projection                 7         0.00146288387        1.41644678e-14
  tke_solve                      3         0.02709973142       1.670386052e-12
  sdr_solve                      4           15.60837185       4.831690603e-13
  velocity_solve                 1       4.145768884e-08       2.330757809e-11
  Nodal_projection               6       0.0007581988622       6.747349124e-16

WallClockTime: 22 Pre: 0.00415 Solve: 2.641 Post: 1.67e-05 Total: 2.645
Solve time per cell: 1.99e-05

==============================================================================
Step: 23 dt: 0.05 Time: 1.1 to 1.15
CFL: 0.0405218 (conv: 0.0402372 diff: 0 src: 0.00339574 )

Godunov:
  System                     Iters      Initial residual        Final residual
  ----------------------------------------------------------------------------
  MAC_projection                 7        0.001493948113       1.374415989e-14
  tke_solve                      3         0.02712109979       1.669220318e-12
  sdr_solve                      4           15.63258003       4.831690603e-13
  velocity_solve                 1        4.27147171e-08       2.404121346e-11
  Nodal_projection               6       0.0007584402846       6.747642839e-16

WallClockTime: 23 Pre: 0.00414 Solve: 2.625 Post: 9.1e-06 Total: 2.629
Solve time per cell: 1.978e-05

==============================================================================
Step: 24 dt: 0.05 Time: 1.15 to 1.2
CFL: 0.0405321 (conv: 0.0402476 diff: 0 src: 0.00339618 )

Godunov:
  System                     Iters      Initial residual        Final residual
  ----------------------------------------------------------------------------
  MAC_projection                 7        0.001519153941        1.42606467e-14
  tke_solve                      3         0.02713739209       1.667832539e-12
  sdr_solve                      4           15.65585601       4.831690603e-13
  velocity_solve                 1       4.393374375e-08       2.475708527e-11
  Nodal_projection               6       0.0007586579648       6.747329962e-16

WallClockTime: 24 Pre: 0.00414 Solve: 2.639 Post: 1e-05 Total: 2.643
Solve time per cell: 1.988e-05

==============================================================================
Step: 25 dt: 0.05 Time: 1.2 to 1.25
CFL: 0.0405423 (conv: 0.0402578 diff: 0 src: 0.00339623 )

Godunov:
  System                     Iters      Initial residual        Final residual
  ----------------------------------------------------------------------------
  MAC_projection                 7         0.00153879737       1.514071393e-14
  tke_solve                      3         0.02716213949       1.683232546e-12
  sdr_solve                      1       8.320085814e+17           318883.3856
  velocity_solve                 1       4.511486651e-08       2.545164079e-11
  Nodal_projection               6       0.0007588439377       6.747733027e-16

WallClockTime: 25 Pre: 0.00415 Solve: 2.568 Post: 1.09e-05 Total: 2.572
Solve time per cell: 1.935e-05

==============================================================================
Step: 26 dt: 0.05 Time: 1.25 to 1.3
CFL: 0.0405523 (conv: 0.0402679 diff: 0 src: 0.00339594 )

Godunov:
  System                     Iters      Initial residual        Final residual
  ----------------------------------------------------------------------------
  MAC_projection                 7        0.001569330733       1.513313468e-14
  tke_solve                      4          0.4657080645       3.094746681e-15
  sdr_solve                      3           63827.31025       5.062329365e-07
  velocity_solve                 1       4.625792904e-08       2.612488004e-11
  Nodal_projection               6        0.000759001482       6.748133213e-16

WallClockTime: 26 Pre: 0.00417 Solve: 2.629 Post: 8.57e-06 Total: 2.633
Solve time per cell: 1.981e-05

==============================================================================
Step: 27 dt: 0.05 Time: 1.3 to 1.35
CFL: 0.0405622 (conv: 0.0402779 diff: 0 src: 0.00339546 )

Godunov:
  System                     Iters      Initial residual        Final residual
  ----------------------------------------------------------------------------
  MAC_projection                 7        0.001603208326       1.572548176e-14
  tke_solve                      3         0.01563211218       9.954892813e-13
  sdr_solve                      4           238.9646872       4.092726158e-12
  velocity_solve                 1       4.736175185e-08         2.6776803e-11
  Nodal_projection               6       0.0007591496591       6.748021703e-16

WallClockTime: 27 Pre: 0.00413 Solve: 2.629 Post: 1.03e-05 Total: 2.634
Solve time per cell: 1.981e-05

==============================================================================
Step: 28 dt: 0.05 Time: 1.35 to 1.4
CFL: 0.0405719 (conv: 0.0402878 diff: 0 src: 0.00339487 )

Godunov:
  System                     Iters      Initial residual        Final residual
  ----------------------------------------------------------------------------
  MAC_projection                 8        0.001636093226       7.673373113e-16
  tke_solve                      3         0.02234030594       1.408863477e-12
  sdr_solve                      4           62.70991042       7.389644452e-13
  velocity_solve                 1       4.842460655e-08       2.740740968e-11
  Nodal_projection               6       0.0007592753923       6.748051345e-16

WallClockTime: 28 Pre: 0.00417 Solve: 2.642 Post: 9.51e-06 Total: 2.646
Solve time per cell: 1.991e-05

==============================================================================
Step: 29 dt: 0.05 Time: 1.4 to 1.45
CFL: 0.0405815 (conv: 0.0402976 diff: 0 src: 0.00339419 )

Godunov:
  System                     Iters      Initial residual        Final residual
  ----------------------------------------------------------------------------
  MAC_projection                 8        0.001667908728        7.88743528e-16
  tke_solve                      3          0.0267392111       1.674545919e-12
  sdr_solve                      3           27.65171771       5.829932093e-10
  velocity_solve                 1       4.944454979e-08       2.801670007e-11
  Nodal_projection               6       0.0007593699494       6.748778833e-16

WallClockTime: 29 Pre: 0.00418 Solve: 2.618 Post: 8.04e-06 Total: 2.622
Solve time per cell: 1.972e-05

==============================================================================
Step: 30 dt: 0.05 Time: 1.45 to 1.5
CFL: 0.0405909 (conv: 0.0403072 diff: 0 src: 0.00339345 )

Godunov:
  System                     Iters      Initial residual        Final residual
  ----------------------------------------------------------------------------
  MAC_projection                 8        0.001698735305       8.165939713e-16
  tke_solve                      3         0.02915567171       1.817038273e-12
  sdr_solve                      4           15.16525652       3.694822226e-13
  velocity_solve                 1       5.041849782e-08       2.859934511e-11
  Nodal_projection               6        0.000759422473       6.748827635e-16

WallClockTime: 30 Pre: 0.00414 Solve: 2.684 Post: 9.66e-06 Total: 2.688
Solve time per cell: 2.022e-05

==============================================================================
Step: 31 dt: 0.05 Time: 1.5 to 1.55
CFL: 0.0406002 (conv: 0.0403167 diff: 0 src: 0.0033927 )

Godunov:
  System                     Iters      Initial residual        Final residual
  ----------------------------------------------------------------------------
  MAC_projection                 8        0.001728778846         8.4340087e-16
  tke_solve                      3         0.03019204026       1.877586194e-12
  sdr_solve                      3       2.936089602e+15           650.7840968
  velocity_solve                 1       5.134813286e-08       2.915889752e-11
  Nodal_projection               6       0.0007594373289       6.749195368e-16

WallClockTime: 31 Pre: 0.00571 Solve: 3.026 Post: 1.65e-05 Total: 3.032
Solve time per cell: 2.28e-05

==============================================================================
Step: 32 dt: 0.05 Time: 1.55 to 1.6
CFL: 0.0406094 (conv: 0.0403261 diff: 0 src: 0.00339226 )

Godunov:
  System                     Iters      Initial residual        Final residual
  ----------------------------------------------------------------------------
  MAC_projection                 8        0.001758102677        8.43014623e-16
  tke_solve                      3         0.03039621333       1.883914899e-12
  sdr_solve                      4           246.9202041       5.798028724e-12
  velocity_solve                 1         5.2237354e-08          2.969891e-11
  Nodal_projection               6       0.0007594185297       6.749174236e-16

WallClockTime: 32 Pre: 0.00416 Solve: 2.646 Post: 9.83e-06 Total: 2.65
Solve time per cell: 1.994e-05

==============================================================================
Step: 33 dt: 0.05 Time: 1.6 to 1.65
CFL: 0.0406185 (conv: 0.0403352 diff: 0 src: 0.00339223 )

Godunov:
  System                     Iters      Initial residual        Final residual
  ----------------------------------------------------------------------------
  MAC_projection                 8        0.001786782178       8.605448168e-16
  tke_solve                      3         0.03033260595       1.876698449e-12
  sdr_solve                      4           63.88470091       1.591615728e-12
  velocity_solve                 1       5.308854689e-08       3.021227712e-11
  Nodal_projection               6       0.0007594064422       6.749269252e-16

WallClockTime: 33 Pre: 0.00421 Solve: 2.65 Post: 9.18e-06 Total: 2.654
Solve time per cell: 1.997e-05

==============================================================================
Step: 34 dt: 0.05 Time: 1.65 to 1.7
CFL: 0.0406276 (conv: 0.0403443 diff: 0 src: 0.00339269 )

Godunov:
  System                     Iters      Initial residual        Final residual
  ----------------------------------------------------------------------------
  MAC_projection                 8        0.001814861745       8.843655009e-16
  tke_solve                      3          0.0299084991       1.848647103e-12
  sdr_solve                      4           28.40399409       6.394884622e-13
  velocity_solve                 1       5.390320901e-08       3.070788068e-11
  Nodal_projection               6       0.0007593476815        6.74992666e-16

WallClockTime: 34 Pre: 0.00413 Solve: 2.701 Post: 8.9e-06 Total: 2.705
Solve time per cell: 2.035e-05

==============================================================================
Step: 35 dt: 0.05 Time: 1.7 to 1.75
CFL: 0.0406365 (conv: 0.0403531 diff: 0 src: 0.00339365 )

Godunov:
  System                     Iters      Initial residual        Final residual
  ----------------------------------------------------------------------------
  MAC_projection                 8        0.001842385904       8.994448049e-16
  tke_solve                      3         0.02941545981       1.817082075e-12
  sdr_solve                      4           15.82125553       4.689582056e-13
  velocity_solve                 1       5.468212905e-08       3.118394432e-11
  Nodal_projection               6       0.0007592668533       6.749957531e-16

WallClockTime: 35 Pre: 0.00417 Solve: 2.653 Post: 1.03e-05 Total: 2.657
Solve time per cell: 1.999e-05

==============================================================================
Step: 36 dt: 0.05 Time: 1.75 to 1.8
CFL: 0.0406454 (conv: 0.0403618 diff: 0 src: 0.0033948 )

Godunov:
  System                     Iters      Initial residual        Final residual
  ----------------------------------------------------------------------------
  MAC_projection                 8        0.001869416439       9.491143934e-16
  tke_solve                      3         0.02895523006        1.78980962e-12
  sdr_solve                      3       1.903762811e+16           5993.541469
  velocity_solve                 1       5.542557879e-08       3.164224438e-11
  Nodal_projection               6       0.0007592151781       6.750341537e-16

WallClockTime: 36 Pre: 0.00512 Solve: 2.638 Post: 8.69e-06 Total: 2.644
Solve time per cell: 1.988e-05

==============================================================================
Step: 37 dt: 0.05 Time: 1.8 to 1.85
CFL: 0.0406542 (conv: 0.0403705 diff: 0 src: 0.00339627 )

Godunov:
  System                     Iters      Initial residual        Final residual
  ----------------------------------------------------------------------------
  MAC_projection                 8        0.001896398074        9.79220062e-16
  tke_solve                      3         0.02855660938       1.762887579e-12
  sdr_solve                      4           1294.386795       2.228262019e-11
  velocity_solve                 1        5.61333362e-08       3.208100452e-11
  Nodal_projection               6       0.0007591765566       6.750731424e-16

WallClockTime: 37 Pre: 0.00459 Solve: 2.647 Post: 9.29e-06 Total: 2.652
Solve time per cell: 1.995e-05

==============================================================================
Step: 38 dt: 0.05 Time: 1.85 to 1.9
CFL: 0.040663 (conv: 0.040379 diff: 0 src: 0.00339807 )

Godunov:
  System                     Iters      Initial residual        Final residual
  ----------------------------------------------------------------------------
  MAC_projection                 8        0.001922908663       1.031104218e-15
  tke_solve                      3         0.02858609611       1.762948294e-12
  sdr_solve                      4           126.5583361       3.126388037e-12
  velocity_solve                 1       5.680509929e-08       3.249667202e-11
  Nodal_projection               6       0.0007591570053       6.751270378e-16

WallClockTime: 38 Pre: 0.00901 Solve: 2.654 Post: 8.85e-06 Total: 2.663
Solve time per cell: 2e-05

==============================================================================
Step: 39 dt: 0.05 Time: 1.9 to 1.95
CFL: 0.0406715 (conv: 0.0403873 diff: 0 src: 0.00339947 )

Godunov:
  System                     Iters      Initial residual        Final residual
  ----------------------------------------------------------------------------
  MAC_projection                 8        0.001948938396       1.104433554e-15
  tke_solve                      3         0.02821859504       1.740195661e-12
  sdr_solve                      4           43.95923814       1.051603249e-12
  velocity_solve                 1       5.744007758e-08       3.289102324e-11
  Nodal_projection               6       0.0007591629704       6.751066685e-16

WallClockTime: 39 Pre: 0.00421 Solve: 2.647 Post: 9.86e-06 Total: 2.651
Solve time per cell: 1.995e-05

==============================================================================
Step: 40 dt: 0.05 Time: 1.95 to 2
CFL: 0.0406797 (conv: 0.0403955 diff: 0 src: 0.00340045 )

Godunov:
  System                     Iters      Initial residual        Final residual
  ----------------------------------------------------------------------------
  MAC_projection                 8        0.001974469826       1.126442011e-15
  tke_solve                      3         0.02790313703       1.720813596e-12
  sdr_solve                      4            21.8703148       4.831690603e-13
  velocity_solve                 1       5.803736336e-08       3.326761089e-11
  Nodal_projection               6         0.00075919518       6.751695553e-16

WallClockTime: 40 Pre: 0.00415 Solve: 2.644 Post: 9.37e-06 Total: 2.648
Solve time per cell: 1.992e-05

==============================================================================
Step: 41 dt: 0.05 Time: 2 to 2.05
CFL: 0.0406877 (conv: 0.0404034 diff: 0 src: 0.00340103 )

Godunov:
  System                     Iters      Initial residual        Final residual
  ----------------------------------------------------------------------------
  MAC_projection                 8        0.001999447822       1.135285035e-15
  tke_solve                      3         0.02766837173       1.707993989e-12
  sdr_solve                      4       1.952391773e+12         0.01890735563
  velocity_solve                 1       5.859400609e-08       3.362288226e-11
  Nodal_projection               6       0.0007592432433       6.752608438e-16

WallClockTime: 41 Pre: 0.00571 Solve: 2.688 Post: 8.43e-06 Total: 2.694
Solve time per cell: 2.026e-05

==============================================================================
Step: 42 dt: 0.05 Time: 2.05 to 2.1
CFL: 0.0406955 (conv: 0.0404112 diff: 0 src: 0.00340123 )

Godunov:
  System                     Iters      Initial residual        Final residual
  ----------------------------------------------------------------------------
  MAC_projection                 8        0.002024733769       1.149091673e-15
  tke_solve                      3         0.02749867108         1.6975258e-12
  sdr_solve                      4       1.522549884e+16           115.6315686
  velocity_solve                 1       5.910659873e-08       3.395506099e-11
  Nodal_projection               6       0.0007592974782       6.752781343e-16

WallClockTime: 42 Pre: 0.00559 Solve: 2.657 Post: 9.55e-06 Total: 2.663
Solve time per cell: 2.002e-05

==============================================================================
Step: 43 dt: 0.05 Time: 2.1 to 2.15
CFL: 0.040703 (conv: 0.0404188 diff: 0 src: 0.00340111 )

Godunov:
  System                     Iters      Initial residual        Final residual
  ----------------------------------------------------------------------------
  MAC_projection                 8        0.002049754176       1.212615755e-15
  tke_solve                      3         0.02738176886       1.688722079e-12
  sdr_solve                      4           1207.638392       3.080913302e-11
  velocity_solve                 1       5.957781291e-08       3.426414708e-11
  Nodal_projection               6       0.0007593533075       6.753257683e-16

WallClockTime: 43 Pre: 0.00415 Solve: 2.659 Post: 9.44e-06 Total: 2.664
Solve time per cell: 2.004e-05

==============================================================================
Step: 44 dt: 0.05 Time: 2.15 to 2.2
CFL: 0.0407102 (conv: 0.0404261 diff: 0 src: 0.00340075 )

Godunov:
  System                     Iters      Initial residual        Final residual
  ----------------------------------------------------------------------------
  MAC_projection                 8        0.002073900378       1.261848698e-15
  tke_solve                      3         0.02762811898       1.699951811e-12
  sdr_solve                      4           123.7848266       3.439026841e-12
  velocity_solve                 1       6.000987618e-08       3.454836417e-11
  Nodal_projection               6       0.0007594006007       6.753687491e-16

WallClockTime: 44 Pre: 0.00412 Solve: 2.666 Post: 9.78e-06 Total: 2.67
Solve time per cell: 2.009e-05

==============================================================================
Step: 45 dt: 0.05 Time: 2.2 to 2.25
CFL: 0.0407173 (conv: 0.0404333 diff: 0 src: 0.00340043 )

Godunov:
  System                     Iters      Initial residual        Final residual
  ----------------------------------------------------------------------------
  MAC_projection                 8        0.002097185995       1.320741205e-15
  tke_solve                      3         0.02747573567       1.691866265e-12
  sdr_solve                      4           43.37882007       1.151079232e-12
  velocity_solve                 1       6.039838674e-08       3.480948862e-11
  Nodal_projection               6       0.0007594320843       6.754355075e-16

WallClockTime: 45 Pre: 0.00538 Solve: 2.651 Post: 8.86e-06 Total: 2.657
Solve time per cell: 1.998e-05

==============================================================================
Step: 46 dt: 0.05 Time: 2.25 to 2.3
CFL: 0.0407242 (conv: 0.0404403 diff: 0 src: 0.00340009 )

Godunov:
  System                     Iters      Initial residual        Final residual
  ----------------------------------------------------------------------------
  MAC_projection                 8        0.002119565025       1.390811159e-15
  tke_solve                      3         0.02733312428       1.684150215e-12
  sdr_solve                      4           21.66351027       5.115907697e-13
  velocity_solve                 1       6.074312431e-08        3.50492968e-11
  Nodal_projection               6       0.0007594449993       6.754480223e-16

WallClockTime: 46 Pre: 0.00416 Solve: 2.641 Post: 9.01e-06 Total: 2.646
Solve time per cell: 1.99e-05

==============================================================================
Step: 47 dt: 0.05 Time: 2.3 to 2.35
CFL: 0.0407308 (conv: 0.0404471 diff: 0 src: 0.00339959 )

Godunov:
  System                     Iters      Initial residual        Final residual
  ----------------------------------------------------------------------------
  MAC_projection                 8         0.00214100788       1.374802236e-15
  tke_solve                      3         0.02723328676       1.680084023e-12
  sdr_solve                      4        1.96996758e+15           20.32252351
  velocity_solve                 1       6.104410311e-08       3.526245962e-11
  Nodal_projection               6       0.0007594362037       6.755069316e-16

WallClockTime: 47 Pre: 0.00418 Solve: 2.64 Post: 1e-05 Total: 2.644
Solve time per cell: 1.989e-05

==============================================================================
Step: 48 dt: 0.05 Time: 2.35 to 2.4
CFL: 0.0407373 (conv: 0.0404537 diff: 0 src: 0.00339898 )

Godunov:
  System                     Iters      Initial residual        Final residual
  ----------------------------------------------------------------------------
  MAC_projection                 8        0.002161488397       1.337858047e-15
  tke_solve                      3         0.02717266755       1.674924088e-12
  sdr_solve                      4           180.1198174       7.190692486e-12
  velocity_solve                 1       6.130152563e-08        3.54525298e-11
  Nodal_projection               6       0.0007594398102       6.755988471e-16

WallClockTime: 48 Pre: 0.00429 Solve: 2.639 Post: 9.63e-06 Total: 2.643
Solve time per cell: 1.989e-05

==============================================================================
Step: 49 dt: 0.05 Time: 2.4 to 2.45
CFL: 0.0407435 (conv: 0.04046 diff: 0 src: 0.00339829 )

Godunov:
  System                     Iters      Initial residual        Final residual
  ----------------------------------------------------------------------------
  MAC_projection                 8        0.002180976534       1.373467312e-15
  tke_solve                      3           0.027245812       1.676904275e-12
  sdr_solve                      4       4.312431917e+15           37.56278021
  velocity_solve                 1        6.15157898e-08       3.561595463e-11
  Nodal_projection               6       0.0007596133412       6.756290268e-16

WallClockTime: 49 Pre: 0.00415 Solve: 2.641 Post: 9.62e-06 Total: 2.646
Solve time per cell: 1.99e-05

==============================================================================
Step: 50 dt: 0.05 Time: 2.45 to 2.5
CFL: 0.0407495 (conv: 0.0404662 diff: 0 src: 0.00339753 )

Godunov:
  System                     Iters      Initial residual        Final residual
  ----------------------------------------------------------------------------
  MAC_projection                 8        0.002199447054       1.400572366e-15
  tke_solve                      3         0.02721575102       1.675721194e-12
  sdr_solve                      3       4.206102938e+16           390911.4783
  velocity_solve                 1       6.168779265e-08       3.575983953e-11
  Nodal_projection               6       0.0007597802349        6.75697409e-16

WallClockTime: 50 Pre: 0.00414 Solve: 2.619 Post: 9.47e-06 Total: 2.623
Solve time per cell: 1.973e-05

==============================================================================
Step: 51 dt: 0.05 Time: 2.5 to 2.55
CFL: 0.0407553 (conv: 0.0404722 diff: 0 src: 0.00339671 )

Godunov:
  System                     Iters      Initial residual        Final residual
  ----------------------------------------------------------------------------
  MAC_projection                 8        0.002216874423       1.393904523e-15
  tke_solve                      3         0.02727041061       1.678407413e-12
  sdr_solve                      4       4.609514055e+16           355.1479138
  velocity_solve                 1       6.182513523e-08       3.587530273e-11
  Nodal_projection               6       0.0007599190354       6.757415904e-16

WallClockTime: 51 Pre: 0.00595 Solve: 2.65 Post: 9.58e-06 Total: 2.656
Solve time per cell: 1.997e-05

==============================================================================
Step: 52 dt: 0.05 Time: 2.55 to 2.6
CFL: 0.0407609 (conv: 0.040478 diff: 0 src: 0.00339586 )

Godunov:
  System                     Iters      Initial residual        Final residual
  ----------------------------------------------------------------------------
  MAC_projection                 8        0.002233239725       1.415412384e-15
  tke_solve                      3         0.02761645507       1.713795772e-12
  sdr_solve                      4       4.626844561e+16           521.9758416
  velocity_solve                 1       6.192266966e-08       3.597477871e-11
  Nodal_projection               6       0.0007600340835       6.757810469e-16

WallClockTime: 52 Pre: 0.00414 Solve: 2.64 Post: 8.72e-06 Total: 2.644
Solve time per cell: 1.989e-05

==============================================================================
Step: 53 dt: 0.05 Time: 2.6 to 2.65
CFL: 0.0407663 (conv: 0.0404836 diff: 0 src: 0.003395 )

Godunov:
  System                     Iters      Initial residual        Final residual
  ----------------------------------------------------------------------------
  MAC_projection                 8        0.002248531302       1.480220569e-15
  tke_solve                      3          0.0276418182       1.718430953e-12
  sdr_solve                      4       4.624721296e+16           501.7207097
  velocity_solve                 1       6.198121305e-08       3.604405663e-11
  Nodal_projection               6       0.0007601291673       6.758286635e-16

WallClockTime: 53 Pre: 0.00418 Solve: 2.663 Post: 9.53e-06 Total: 2.667
Solve time per cell: 2.006e-05

==============================================================================
Step: 54 dt: 0.05 Time: 2.65 to 2.7
CFL: 0.0407728 (conv: 0.0404902 diff: 0 src: 0.00339409 )

Godunov:
  System                     Iters      Initial residual        Final residual
  ----------------------------------------------------------------------------
  MAC_projection                 8         0.00226274197       1.491469166e-15
  tke_solve                      3         0.02764304301       1.707467501e-12
  sdr_solve                      4       4.626839263e+16           468.6303079
  velocity_solve                 1       6.200226643e-08       3.609912369e-11
  Nodal_projection               6       0.0007602048738       6.758679141e-16

WallClockTime: 54 Pre: 0.00412 Solve: 2.659 Post: 9.91e-06 Total: 2.663
Solve time per cell: 2.004e-05

==============================================================================
Step: 55 dt: 0.05 Time: 2.7 to 2.75
CFL: 0.0407823 (conv: 0.0405 diff: 0 src: 0.00339316 )

Godunov:
  System                     Iters      Initial residual        Final residual
  ----------------------------------------------------------------------------
  MAC_projection                 8        0.002275870549       1.433748953e-15
  tke_solve                      3         0.02764443647       1.709160591e-12
  sdr_solve                      4       4.625946975e+16           471.6655248
  velocity_solve                 1        6.19874907e-08       3.612576904e-11
  Nodal_projection               6       0.0007602633001       6.758978266e-16

WallClockTime: 55 Pre: 0.00416 Solve: 2.647 Post: 1.02e-05 Total: 2.651
Solve time per cell: 1.995e-05

==============================================================================
Step: 56 dt: 0.05 Time: 2.75 to 2.8
CFL: 0.0407917 (conv: 0.0405096 diff: 0 src: 0.00339221 )

Godunov:
  System                     Iters      Initial residual        Final residual
  ----------------------------------------------------------------------------
  MAC_projection                 8        0.002287923223        1.45228881e-15
  tke_solve                      3         0.02764628222       1.714545173e-12
  sdr_solve                      4       4.628692238e+16           521.6691595
  velocity_solve                 1        6.19385947e-08       3.614175625e-11
  Nodal_projection               6       0.0007603005679       6.759937713e-16

WallClockTime: 56 Pre: 0.00421 Solve: 2.655 Post: 8.83e-06 Total: 2.659
Solve time per cell: 2e-05

==============================================================================
Step: 57 dt: 0.05 Time: 2.8 to 2.85
CFL: 0.0408009 (conv: 0.0405191 diff: 0 src: 0.00339125 )

Godunov:
  System                     Iters      Initial residual        Final residual
  ----------------------------------------------------------------------------
  MAC_projection                 8        0.002298910618       1.369997865e-15
  tke_solve                      3         0.02764765905       1.718125642e-12
  sdr_solve                      4       4.613819975e+16           498.1423613
  velocity_solve                 1       6.185744716e-08       3.613820354e-11
  Nodal_projection               6       0.0007603268948       6.760558073e-16

WallClockTime: 57 Pre: 0.00414 Solve: 2.643 Post: 9.43e-06 Total: 2.647
Solve time per cell: 1.992e-05

==============================================================================
Step: 58 dt: 0.05 Time: 2.85 to 2.9
CFL: 0.0408101 (conv: 0.0405285 diff: 0 src: 0.00339028 )

Godunov:
  System                     Iters      Initial residual        Final residual
  ----------------------------------------------------------------------------
  MAC_projection                 8        0.002308856045       1.406860739e-15
  tke_solve                      3         0.02765138239       1.720401599e-12
  sdr_solve                      4       4.624000203e+16           571.5496759
  velocity_solve                 1       6.174598965e-08       3.611333455e-11
  Nodal_projection               6       0.0007603408978       6.760987653e-16

WallClockTime: 58 Pre: 0.00416 Solve: 2.649 Post: 8.72e-06 Total: 2.653
Solve time per cell: 1.996e-05

==============================================================================
Step: 59 dt: 0.05 Time: 2.9 to 2.95
CFL: 0.0408192 (conv: 0.0405378 diff: 0 src: 0.00338929 )

Godunov:
  System                     Iters      Initial residual        Final residual
  ----------------------------------------------------------------------------
  MAC_projection                 8        0.002317784977       1.449469884e-15
  tke_solve                      3         0.02764776047       1.720651399e-12
  sdr_solve                      4       4.624380414e+16           496.7598357
  velocity_solve                 1       6.160616906e-08       3.607070198e-11
  Nodal_projection               6       0.0007603450208       6.761473316e-16

WallClockTime: 59 Pre: 0.00415 Solve: 2.66 Post: 9.81e-06 Total: 2.664
Solve time per cell: 2.004e-05

==============================================================================
Step: 60 dt: 0.05 Time: 2.95 to 3
CFL: 0.0408281 (conv: 0.0405469 diff: 0 src: 0.0033883 )

Godunov:
  System                     Iters      Initial residual        Final residual
  ----------------------------------------------------------------------------
  MAC_projection                 8         0.00232572787       1.422347889e-15
  tke_solve                      3         0.02765593491       1.707828323e-12
  sdr_solve                      4       4.617881682e+16           516.4313833
  velocity_solve                 1       6.143993048e-08       3.601741128e-11
  Nodal_projection               6       0.0007603418587       6.762302614e-16

WallClockTime: 60 Pre: 0.00454 Solve: 2.646 Post: 9.17e-06 Total: 2.651
Solve time per cell: 1.994e-05

==============================================================================
Step: 61 dt: 0.05 Time: 3 to 3.05
CFL: 0.040837 (conv: 0.040556 diff: 0 src: 0.0033873 )

Godunov:
  System                     Iters      Initial residual        Final residual
  ----------------------------------------------------------------------------
  MAC_projection                 8        0.002332718312       1.517625543e-15
  tke_solve                      3         0.02765421763       1.711575326e-12
  sdr_solve                      4       4.620607085e+16           518.1476003
  velocity_solve                 1       6.124919416e-08         3.5946357e-11
  Nodal_projection               6       0.0007603318475        6.76303289e-16

WallClockTime: 61 Pre: 0.00602 Solve: 2.651 Post: 9.23e-06 Total: 2.657
Solve time per cell: 1.998e-05

==============================================================================
Step: 62 dt: 0.05 Time: 3.05 to 3.1
CFL: 0.0408457 (conv: 0.0405649 diff: 0 src: 0.00338629 )

Godunov:
  System                     Iters      Initial residual        Final residual
  ----------------------------------------------------------------------------
  MAC_projection                 8        0.002338792355       1.571327432e-15
  tke_solve                      3         0.02765690081       1.716987663e-12
  sdr_solve                      4       4.626261545e+16           506.9853864
  velocity_solve                 1       6.103584482e-08       3.586286823e-11
  Nodal_projection               6       0.0007603135539        6.76330739e-16

WallClockTime: 62 Pre: 0.00426 Solve: 2.667 Post: 9.67e-06 Total: 2.672
Solve time per cell: 2.01e-05

==============================================================================
Step: 63 dt: 0.05 Time: 3.1 to 3.15
CFL: 0.0408542 (conv: 0.0405737 diff: 0 src: 0.00338523 )

Godunov:
  System                     Iters      Initial residual        Final residual
  ----------------------------------------------------------------------------
  MAC_projection                 8        0.002343989721       1.571401971e-15
  tke_solve                      3         0.02765350803       1.719874243e-12
  sdr_solve                      4       4.614136808e+16           490.8523851
  velocity_solve                 1       6.080176895e-08       3.576694496e-11
  Nodal_projection               6       0.0007602869087        6.76404119e-16

WallClockTime: 63 Pre: 0.00417 Solve: 2.643 Post: 9.41e-06 Total: 2.647
Solve time per cell: 1.992e-05

==============================================================================
Step: 64 dt: 0.05 Time: 3.15 to 3.2
CFL: 0.0408627 (conv: 0.0405824 diff: 0 src: 0.0033843 )

Godunov:
  System                     Iters      Initial residual        Final residual
  ----------------------------------------------------------------------------
  MAC_projection                 8        0.002348351172       1.552672379e-15
  tke_solve                      3         0.02765467812       1.722261223e-12
  sdr_solve                      4       4.612014213e+16           570.4178167
  velocity_solve                 1       6.054874113e-08       3.566213991e-11
  Nodal_projection               6       0.0007602528377       6.764577981e-16

WallClockTime: 64 Pre: 0.0042 Solve: 2.66 Post: 9.9e-06 Total: 2.664
Solve time per cell: 2.004e-05

==============================================================================
Step: 65 dt: 0.05 Time: 3.2 to 3.25
CFL: 0.040871 (conv: 0.0405909 diff: 0 src: 0.0033834 )

Godunov:
  System                     Iters      Initial residual        Final residual
  ----------------------------------------------------------------------------
  MAC_projection                 8        0.002351917232       1.551317126e-15
  tke_solve                      3         0.02764911978       1.721844889e-12
  sdr_solve                      4       4.616005947e+16           479.0860201
  velocity_solve                 1       6.027849153e-08       3.553957129e-11
  Nodal_projection               6       0.0007602102784       6.765365374e-16

WallClockTime: 65 Pre: 0.0042 Solve: 3.053 Post: 9.52e-06 Total: 3.057
Solve time per cell: 2.3e-05

==============================================================================
Step: 66 dt: 0.05 Time: 3.25 to 3.3
CFL: 0.0408792 (conv: 0.0405993 diff: 0 src: 0.00338255 )

Godunov:
  System                     Iters      Initial residual        Final residual
  ----------------------------------------------------------------------------
  MAC_projection                 8        0.002354731326       1.391248228e-15
  tke_solve                      3         0.02764306854       1.706274011e-12
  sdr_solve                      4       4.625211738e+16           505.0585298
  velocity_solve                 1       6.010837161e-08       3.547029337e-11
  Nodal_projection               6       0.0007601604016       6.765485398e-16

WallClockTime: 66 Pre: 0.00422 Solve: 2.64 Post: 9.46e-06 Total: 2.644
Solve time per cell: 1.989e-05

==============================================================================
Step: 67 dt: 0.05 Time: 3.3 to 3.35
CFL: 0.0408872 (conv: 0.0406075 diff: 0 src: 0.00338184 )

Godunov:
  System                     Iters      Initial residual        Final residual
  ----------------------------------------------------------------------------
  MAC_projection                 8        0.002410208405       1.425021125e-15
  tke_solve                      3         0.02763539286       1.710326325e-12
  sdr_solve                      4       4.614808558e+16           500.4618878
  velocity_solve                 1       6.075038606e-08       3.581135388e-11
  Nodal_projection               6       0.0007601083722       6.766607138e-16

WallClockTime: 67 Pre: 0.0073 Solve: 2.669 Post: 1.01e-05 Total: 2.677
Solve time per cell: 2.011e-05

==============================================================================
Step: 68 dt: 0.05 Time: 3.35 to 3.4
CFL: 0.0408952 (conv: 0.0406156 diff: 0 src: 0.00338121 )

Godunov:
  System                     Iters      Initial residual        Final residual
  ----------------------------------------------------------------------------
  MAC_projection                 8        0.002475191725       1.456002202e-15
  tke_solve                      3         0.02765121888       1.718375442e-12
  sdr_solve                      4       4.613651731e+16           517.8462819
  velocity_solve                 1       6.135681296e-08        3.61275454e-11
  Nodal_projection               6       0.0007600528373       6.766958913e-16

WallClockTime: 68 Pre: 0.00506 Solve: 2.652 Post: 9.89e-06 Total: 2.657
Solve time per cell: 1.998e-05

==============================================================================
Step: 69 dt: 0.05 Time: 3.4 to 3.45
CFL: 0.0409029 (conv: 0.0406235 diff: 0 src: 0.00338063 )

Godunov:
  System                     Iters      Initial residual        Final residual
  ----------------------------------------------------------------------------
  MAC_projection                 8        0.002520652987       1.363058971e-15
  tke_solve                      3          0.0276359675       1.718319931e-12
  sdr_solve                      4       4.613929204e+16           512.6513581
  velocity_solve                 1       6.192733082e-08       3.643130242e-11
  Nodal_projection               6       0.0007599922477       6.767437883e-16

WallClockTime: 69 Pre: 0.0042 Solve: 2.662 Post: 9.32e-06 Total: 2.666
Solve time per cell: 2.006e-05

==============================================================================
Step: 70 dt: 0.05 Time: 3.45 to 3.5
CFL: 0.0409106 (conv: 0.0406313 diff: 0 src: 0.00338008 )

Godunov:
  System                     Iters      Initial residual        Final residual
  ----------------------------------------------------------------------------
  MAC_projection                 8        0.002359274505       1.323255199e-15
  tke_solve                      3         0.02763744621       1.720401599e-12
  sdr_solve                      4        4.61381348e+16           572.0159249
  velocity_solve                 1       6.246168383e-08        3.67119668e-11
  Nodal_projection               6       0.0007599285158       6.767915001e-16

WallClockTime: 70 Pre: 0.00431 Solve: 2.645 Post: 8.63e-06 Total: 2.649
Solve time per cell: 1.993e-05

==============================================================================
Step: 71 dt: 0.05 Time: 3.5 to 3.55
CFL: 0.040918 (conv: 0.0406389 diff: 0 src: 0.00337956 )

Godunov:
  System                     Iters      Initial residual        Final residual
  ----------------------------------------------------------------------------
  MAC_projection                 8        0.002358937889       1.375310456e-15
  tke_solve                      3         0.02764650669       1.722455512e-12
  sdr_solve                      4       4.615078903e+16           504.6490446
  velocity_solve                 1       6.295974941e-08       3.697309126e-11
  Nodal_projection               6       0.0007598606389       6.768865184e-16

WallClockTime: 71 Pre: 0.00599 Solve: 2.646 Post: 9.62e-06 Total: 2.652
Solve time per cell: 1.994e-05

==============================================================================
Step: 72 dt: 0.05 Time: 3.55 to 3.6
CFL: 0.0409254 (conv: 0.0406464 diff: 0 src: 0.00337907 )

Godunov:
  System                     Iters      Initial residual        Final residual
  ----------------------------------------------------------------------------
  MAC_projection                 8        0.002358092419        1.36761262e-15
  tke_solve                      3         0.02764084969       1.706607078e-12
  sdr_solve                      4       4.614689606e+16           493.2444479
  velocity_solve                 1       6.342160042e-08       3.721289943e-11
  Nodal_projection               6       0.0007597894903       6.769262081e-16

WallClockTime: 72 Pre: 0.00418 Solve: 2.664 Post: 9.63e-06 Total: 2.668
Solve time per cell: 2.007e-05

==============================================================================
Step: 73 dt: 0.05 Time: 3.6 to 3.65
CFL: 0.0409325 (conv: 0.0406537 diff: 0 src: 0.00337861 )

Godunov:
  System                     Iters      Initial residual        Final residual
  ----------------------------------------------------------------------------
  MAC_projection                 8        0.002356775434       1.363058971e-15
  tke_solve                      3         0.02764247391       1.712324726e-12
  sdr_solve                      4       4.614965572e+16           495.1558747
  velocity_solve                 1       6.384744999e-08       3.743672039e-11
  Nodal_projection               6        0.000759715626       6.770048879e-16

WallClockTime: 73 Pre: 0.0042 Solve: 2.642 Post: 9.44e-06 Total: 2.646
Solve time per cell: 1.99e-05

==============================================================================
Step: 74 dt: 0.05 Time: 3.65 to 3.7
CFL: 0.0409395 (conv: 0.0406608 diff: 0 src: 0.00337818 )

Godunov:
  System                     Iters      Initial residual        Final residual
  ----------------------------------------------------------------------------
  MAC_projection                 8        0.002355024718       1.478201242e-15
  tke_solve                      3         0.02764046431       1.717598286e-12
  sdr_solve                      4       4.615093803e+16           490.8922582
  velocity_solve                 1       6.423777954e-08         3.7633896e-11
  Nodal_projection               6       0.0007596400863       6.770724851e-16

WallClockTime: 74 Pre: 0.00422 Solve: 2.643 Post: 9.88e-06 Total: 2.647
Solve time per cell: 1.991e-05

==============================================================================
Step: 75 dt: 0.05 Time: 3.7 to 3.75
CFL: 0.0409464 (conv: 0.0406677 diff: 0 src: 0.00337778 )

Godunov:
  System                     Iters      Initial residual        Final residual
  ----------------------------------------------------------------------------
  MAC_projection                 8        0.002352878493        1.51202835e-15
  tke_solve                      3         0.02764156115        1.71970771e-12
  sdr_solve                      4       4.614918316e+16            508.094856
  velocity_solve                 1       6.459096724e-08        3.78150844e-11
  Nodal_projection               6       0.0007595633903       6.771524726e-16

WallClockTime: 75 Pre: 0.00421 Solve: 2.647 Post: 9.67e-06 Total: 2.651
Solve time per cell: 1.995e-05

==============================================================================
Step: 76 dt: 0.05 Time: 3.75 to 3.8
CFL: 0.040953 (conv: 0.0406745 diff: 0 src: 0.00337741 )

Godunov:
  System                     Iters      Initial residual        Final residual
  ----------------------------------------------------------------------------
  MAC_projection                 8        0.002350373893       1.508450483e-15
  tke_solve                      3         0.02764169361       1.720901199e-12
  sdr_solve                      4       4.614760315e+16           566.6324259
  velocity_solve                 1       6.490931881e-08       3.797495651e-11
  Nodal_projection               6       0.0007594862944       6.771749678e-16

WallClockTime: 76 Pre: 0.00418 Solve: 2.96 Post: 9.1e-06 Total: 2.964
Solve time per cell: 2.23e-05

==============================================================================
Step: 77 dt: 0.05 Time: 3.8 to 3.85
CFL: 0.0409596 (conv: 0.0406811 diff: 0 src: 0.00337708 )

Godunov:
  System                     Iters      Initial residual        Final residual
  ----------------------------------------------------------------------------
  MAC_projection                 8        0.002347532402       1.485628027e-15
  tke_solve                      3         0.02764724474       1.721678355e-12
  sdr_solve                      4        4.61867408e+16           510.2071019
  velocity_solve                 1        6.51927845e-08       3.811884142e-11
  Nodal_projection               6       0.0007594100525       6.772384134e-16

WallClockTime: 77 Pre: 0.00421 Solve: 2.637 Post: 1.02e-05 Total: 2.642
Solve time per cell: 1.987e-05

==============================================================================
Step: 78 dt: 0.05 Time: 3.85 to 3.9
CFL: 0.0409659 (conv: 0.0406876 diff: 0 src: 0.00337677 )

Godunov:
  System                     Iters      Initial residual        Final residual
  ----------------------------------------------------------------------------
  MAC_projection                 8        0.002344391643       1.513329392e-15
  tke_solve                      3          0.0276374779       1.706274011e-12
  sdr_solve                      4       4.612341721e+16           493.4503916
  velocity_solve                 1       6.544197184e-08       3.824141004e-11
  Nodal_projection               6       0.0007593353549       6.773271517e-16

WallClockTime: 78 Pre: 0.00418 Solve: 2.647 Post: 9.18e-06 Total: 2.651
Solve time per cell: 1.994e-05

==============================================================================
Step: 79 dt: 0.05 Time: 3.9 to 3.95
CFL: 0.0409721 (conv: 0.0406939 diff: 0 src: 0.00337654 )

Godunov:
  System                     Iters      Initial residual        Final residual
  ----------------------------------------------------------------------------
  MAC_projection                 8        0.002340982612       1.563311113e-15
  tke_solve                      3         0.02763936968       1.711908393e-12
  sdr_solve                      4       4.614363591e+16           490.9707236
  velocity_solve                 1       6.565768551e-08       3.834799145e-11
  Nodal_projection               6       0.0007592637135       6.773580841e-16

WallClockTime: 79 Pre: 0.00421 Solve: 2.696 Post: 9.6e-06 Total: 2.701
Solve time per cell: 2.032e-05

==============================================================================
Step: 80 dt: 0.05 Time: 3.95 to 4
CFL: 0.0409782 (conv: 0.0407 diff: 0 src: 0.00337631 )

Godunov:
  System                     Iters      Initial residual        Final residual
  ----------------------------------------------------------------------------
  MAC_projection                 8        0.002337337534       1.538943669e-15
  tke_solve                      3         0.02764516396       1.716737863e-12
  sdr_solve                      4        4.61099554e+16           497.6789986
  velocity_solve                 1       6.584067336e-08       3.843680929e-11
  Nodal_projection               6       0.0007591944906        6.77406341e-16

WallClockTime: 80 Pre: 0.00416 Solve: 2.653 Post: 9.93e-06 Total: 2.657
Solve time per cell: 1.999e-05

==============================================================================
Step: 81 dt: 0.05 Time: 4 to 4.05
CFL: 0.040984 (conv: 0.0407059 diff: 0 src: 0.00337609 )

Godunov:
  System                     Iters      Initial residual        Final residual
  ----------------------------------------------------------------------------
  MAC_projection                 8        0.002333485611        1.60957944e-15
  tke_solve                      3         0.02764991931        1.71926362e-12
  sdr_solve                      4       4.612500635e+16           495.6782541
  velocity_solve                 1       6.599160685e-08       3.850786356e-11
  Nodal_projection               6        0.000759129176       6.774917383e-16

WallClockTime: 81 Pre: 0.0063 Solve: 2.645 Post: 9.37e-06 Total: 2.651
Solve time per cell: 1.993e-05

==============================================================================
Step: 82 dt: 0.05 Time: 4.05 to 4.1
CFL: 0.0409897 (conv: 0.0407117 diff: 0 src: 0.00337597 )

Godunov:
  System                     Iters      Initial residual        Final residual
  ----------------------------------------------------------------------------
  MAC_projection                 8        0.002329453343       1.634841351e-15
  tke_solve                      3         0.02763699573       1.721789378e-12
  sdr_solve                      4       4.613403651e+16           568.3126815
  velocity_solve                 1       6.611200654e-08       3.856115427e-11
  Nodal_projection               6       0.0007590675719       6.775820722e-16

WallClockTime: 82 Pre: 0.00418 Solve: 2.656 Post: 9.37e-06 Total: 2.66
Solve time per cell: 2.001e-05

==============================================================================
Step: 83 dt: 0.05 Time: 4.1 to 4.15
CFL: 0.0409953 (conv: 0.0407173 diff: 0 src: 0.00337591 )

Godunov:
  System                     Iters      Initial residual        Final residual
  ----------------------------------------------------------------------------
  MAC_projection                 8        0.002325264191       1.657772227e-15
  tke_solve                      3         0.02764652679       1.721345289e-12
  sdr_solve                      4        4.61152412e+16           436.9899058
  velocity_solve                 1       6.620264692e-08       3.860023412e-11
  Nodal_projection               6       0.0007590099371       6.776365983e-16

WallClockTime: 83 Pre: 0.00424 Solve: 2.692 Post: 8.61e-06 Total: 2.696
Solve time per cell: 2.029e-05

==============================================================================
Step: 84 dt: 0.05 Time: 4.15 to 4.2
CFL: 0.0410007 (conv: 0.0407228 diff: 0 src: 0.0033759 )

Godunov:
  System                     Iters      Initial residual        Final residual
  ----------------------------------------------------------------------------
  MAC_projection                 8        0.002320941923       1.722038311e-15
  tke_solve                      3         0.02764257647       1.707495256e-12
  sdr_solve                      4       4.615470359e+16           432.8231634
  velocity_solve                 1       6.626660642e-08       3.861977405e-11
  Nodal_projection               6       0.0007589564921       6.776926745e-16

WallClockTime: 84 Pre: 0.00421 Solve: 2.649 Post: 9.2e-06 Total: 2.654
Solve time per cell: 1.996e-05

==============================================================================
Step: 85 dt: 0.05 Time: 4.2 to 4.25
CFL: 0.041006 (conv: 0.040728 diff: 0 src: 0.00337593 )

Godunov:
  System                     Iters      Initial residual        Final residual
  ----------------------------------------------------------------------------
  MAC_projection                 8        0.002316512244       1.804762936e-15
  tke_solve                      3          0.0276335033       1.711852882e-12
  sdr_solve                      4       4.614922456e+16           462.3445408
  velocity_solve                 1       6.630190441e-08       3.862865583e-11
  Nodal_projection               6       0.0007589061832       6.777649867e-16

WallClockTime: 85 Pre: 0.00467 Solve: 2.676 Post: 9.1e-06 Total: 2.681
Solve time per cell: 2.017e-05

==============================================================================
Step: 86 dt: 0.05 Time: 4.25 to 4.3
CFL: 0.0410111 (conv: 0.0407332 diff: 0 src: 0.00337599 )

Godunov:
  System                     Iters      Initial residual        Final residual
  ----------------------------------------------------------------------------
  MAC_projection                 8        0.002311979049       1.803678734e-15
  tke_solve                      3          0.0276341116        1.71707093e-12
  sdr_solve                      4       4.614697477e+16           504.8617221
  velocity_solve                 1       6.630891036e-08       3.861444497e-11
  Nodal_projection               6       0.0007588589228       6.778031553e-16

WallClockTime: 86 Pre: 0.00421 Solve: 2.66 Post: 9.1e-06 Total: 2.664
Solve time per cell: 2.004e-05

==============================================================================
Step: 87 dt: 0.05 Time: 4.3 to 4.35
CFL: 0.041016 (conv: 0.0407381 diff: 0 src: 0.00337607 )

Godunov:
  System                     Iters      Initial residual        Final residual
  ----------------------------------------------------------------------------
  MAC_projection                 8        0.002307364127       1.799558766e-15
  tke_solve                      3         0.02764128793       1.719097087e-12
  sdr_solve                      4       4.612067269e+16           479.3651558
  velocity_solve                 1       6.628794758e-08       3.859312869e-11
  Nodal_projection               6       0.0007588156687       6.778766039e-16

WallClockTime: 87 Pre: 0.00422 Solve: 3.065 Post: 9.82e-06 Total: 3.07
Solve time per cell: 2.31e-05

==============================================================================
Step: 88 dt: 0.05 Time: 4.35 to 4.4
CFL: 0.0410207 (conv: 0.0407429 diff: 0 src: 0.00337619 )

Godunov:
  System                     Iters      Initial residual        Final residual
  ----------------------------------------------------------------------------
  MAC_projection                 8        0.002302688313       1.862605122e-15
  tke_solve                      3         0.02764278995         1.7221502e-12
  sdr_solve                      4       4.612990524e+16           551.5225443
  velocity_solve                 1       6.624014581e-08       3.855404884e-11
  Nodal_projection               6       0.0007587774388       6.779377756e-16

WallClockTime: 88 Pre: 0.00422 Solve: 2.641 Post: 9.5e-06 Total: 2.645
Solve time per cell: 1.99e-05

==============================================================================
Step: 89 dt: 0.05 Time: 4.4 to 4.45
CFL: 0.0410254 (conv: 0.0407475 diff: 0 src: 0.00337632 )

Godunov:
  System                     Iters      Initial residual        Final residual
  ----------------------------------------------------------------------------
  MAC_projection                 8        0.002297969928       1.875561338e-15
  tke_solve                      3         0.02763782449       1.722316734e-12
  sdr_solve                      4        4.61460784e+16           427.9815874
  velocity_solve                 1       6.616647141e-08       3.850253449e-11
  Nodal_projection               6       0.0007587430451       6.779838289e-16

WallClockTime: 89 Pre: 0.00418 Solve: 2.676 Post: 1.08e-05 Total: 2.681
Solve time per cell: 2.017e-05

==============================================================================
Step: 90 dt: 0.05 Time: 4.45 to 4.5
CFL: 0.0410298 (conv: 0.0407519 diff: 0 src: 0.00337648 )

Godunov:
  System                     Iters      Initial residual        Final residual
  ----------------------------------------------------------------------------
  MAC_projection                 8        0.002293226337       1.944326861e-15
  tke_solve                      3         0.02763350508         1.7064683e-12
[...]

WallClockTime: 637 Pre: 0.00426 Solve: 2.593 Post: 9.73e-06 Total: 2.597
Solve time per cell: 1.954e-05

==============================================================================
Step: 638 dt: 0.05 Time: 31.85 to 31.9
CFL: 0.0408486 (conv: 0.0405724 diff: 0 src: 0.00335869 )

Godunov:
  System                     Iters      Initial residual        Final residual
  ----------------------------------------------------------------------------
  MAC_projection                 8        0.002233527268       5.032463297e-15
  tke_solve                      3         0.02751908649       1.704164587e-12
  sdr_solve                      2         3.7975222e+16           57455.69547
  velocity_solve                 1       4.008623122e-08       2.354205719e-11
  Nodal_projection               6       0.0007587417896       6.856703749e-16

WallClockTime: 638 Pre: 0.00447 Solve: 2.593 Post: 9.94e-06 Total: 2.598
Solve time per cell: 1.954e-05

==============================================================================
Step: 639 dt: 0.05 Time: 31.9 to 31.95
CFL: 0.0408483 (conv: 0.0405721 diff: 0 src: 0.00335892 )

Godunov:
  System                     Iters      Initial residual        Final residual
  ----------------------------------------------------------------------------
  MAC_projection                 8        0.002233644045       5.020149132e-15
  tke_solve                      3         0.02751910474       1.707162189e-12
  sdr_solve                      2       3.797809079e+16           41957.43181
  velocity_solve                 1       4.005793741e-08       2.352606998e-11
  Nodal_projection               6       0.0007587585184       6.856708497e-16

WallClockTime: 639 Pre: 0.00426 Solve: 2.584 Post: 1.08e-05 Total: 2.588
Solve time per cell: 1.947e-05

==============================================================================
Step: 640 dt: 0.05 Time: 31.95 to 32
CFL: 0.0408481 (conv: 0.0405719 diff: 0 src: 0.00335914 )

Godunov:
  System                     Iters      Initial residual        Final residual
  ----------------------------------------------------------------------------
  MAC_projection                 8        0.002233759708        5.06611761e-15
  tke_solve                      3         0.02751925133        1.70866099e-12
  sdr_solve                      2       3.798138713e+16           78247.40035
  velocity_solve                 1       4.002992071e-08       2.351008277e-11
  Nodal_projection               6       0.0007587755864       6.856819455e-16

WallClockTime: 640 Pre: 0.00423 Solve: 2.608 Post: 9.8e-06 Total: 2.612
Solve time per cell: 1.965e-05

==============================================================================
Step: 641 dt: 0.05 Time: 32 to 32.05
CFL: 0.0408479 (conv: 0.0405716 diff: 0 src: 0.00335936 )

Godunov:
  System                     Iters      Initial residual        Final residual
  ----------------------------------------------------------------------------
  MAC_projection                 8        0.002233874027       5.144820523e-15
  tke_solve                      3         0.02751707576       1.709576924e-12
  sdr_solve                      2        3.79471353e+16           7637.764023
  velocity_solve                 1       4.000222376e-08       2.349764827e-11
  Nodal_projection               6       0.0007587928591       6.856703054e-16

WallClockTime: 641 Pre: 0.00604 Solve: 2.586 Post: 1.03e-05 Total: 2.592
Solve time per cell: 1.948e-05

==============================================================================
Step: 642 dt: 0.05 Time: 32.05 to 32.1
CFL: 0.0408476 (conv: 0.0405713 diff: 0 src: 0.00335958 )

Godunov:
  System                     Iters      Initial residual        Final residual
  ----------------------------------------------------------------------------
  MAC_projection                 8        0.002233986755       5.167487125e-15
  tke_solve                      3         0.02751940328        1.70188863e-12
  sdr_solve                      2       3.796185131e+16           62518.70787
  velocity_solve                 1       3.997488385e-08        2.34798847e-11
  Nodal_projection               6       0.0007588102402       6.856789214e-16

WallClockTime: 642 Pre: 0.00425 Solve: 2.616 Post: 9.97e-06 Total: 2.62
Solve time per cell: 1.971e-05

==============================================================================
Step: 643 dt: 0.05 Time: 32.1 to 32.15
CFL: 0.0408474 (conv: 0.040571 diff: 0 src: 0.00335979 )

Godunov:
  System                     Iters      Initial residual        Final residual
  ----------------------------------------------------------------------------
  MAC_projection                 8        0.002234097548       5.153688958e-15
  tke_solve                      3         0.02751884104       1.699584917e-12
  sdr_solve                      2       3.797022595e+16           27189.86755
  velocity_solve                 1       3.994793119e-08       2.346567385e-11
  Nodal_projection               6       0.0007588276358       6.856801059e-16

WallClockTime: 643 Pre: 0.00426 Solve: 2.582 Post: 1.03e-05 Total: 2.586
Solve time per cell: 1.946e-05

==============================================================================
Step: 644 dt: 0.05 Time: 32.15 to 32.2
CFL: 0.0408471 (conv: 0.0405708 diff: 0 src: 0.00335998 )

Godunov:
  System                     Iters      Initial residual        Final residual
  ----------------------------------------------------------------------------
  MAC_projection                 8        0.002234206196       5.165305168e-15
  tke_solve                      3         0.02751908638       1.704164587e-12
  sdr_solve                      2       3.797522203e+16           57450.26214
  velocity_solve                 1       3.992139774e-08       2.344968664e-11
  Nodal_projection               6       0.0007588449723       6.856795748e-16

WallClockTime: 644 Pre: 0.00422 Solve: 2.635 Post: 1.11e-05 Total: 2.639
Solve time per cell: 1.985e-05

==============================================================================
Step: 645 dt: 0.05 Time: 32.2 to 32.25
CFL: 0.0408469 (conv: 0.0405705 diff: 0 src: 0.00336016 )

Godunov:
  System                     Iters      Initial residual        Final residual
  ----------------------------------------------------------------------------
  MAC_projection                 8        0.002234312527       5.163526399e-15
  tke_solve                      3         0.02751910463       1.707162189e-12
  sdr_solve                      2       3.797809084e+16           41953.21762
  velocity_solve                 1       3.989532082e-08       2.343369943e-11
  Nodal_projection               6       0.0007588621866       6.856848291e-16

WallClockTime: 645 Pre: 0.00426 Solve: 2.587 Post: 1.04e-05 Total: 2.591
Solve time per cell: 1.949e-05

==============================================================================
Step: 646 dt: 0.05 Time: 32.25 to 32.3
CFL: 0.0408467 (conv: 0.0405702 diff: 0 src: 0.00336033 )

Godunov:
  System                     Iters      Initial residual        Final residual
  ----------------------------------------------------------------------------
  MAC_projection                 8        0.002234416373       5.162643791e-15
  tke_solve                      3         0.02751925123       1.708633235e-12
  sdr_solve                      2       3.798138718e+16           78239.02792
  velocity_solve                 1       3.986973063e-08       2.342126493e-11
  Nodal_projection               6       0.0007588792304       6.856868838e-16

WallClockTime: 646 Pre: 0.00424 Solve: 2.587 Post: 1.03e-05 Total: 2.591
Solve time per cell: 1.949e-05

==============================================================================
Step: 647 dt: 0.05 Time: 32.3 to 32.35
CFL: 0.0408464 (conv: 0.04057 diff: 0 src: 0.00336049 )

Godunov:
  System                     Iters      Initial residual        Final residual
  ----------------------------------------------------------------------------
  MAC_projection                 8        0.002234517569       5.159436924e-15
  tke_solve                      3         0.02751707564       1.709549169e-12
  sdr_solve                      2       3.794713533e+16           7636.989588
  velocity_solve                 1       3.984465557e-08       2.340350136e-11
  Nodal_projection               6       0.0007588960598       6.856685932e-16

WallClockTime: 647 Pre: 0.00422 Solve: 2.584 Post: 1.04e-05 Total: 2.588
Solve time per cell: 1.947e-05

==============================================================================
Step: 648 dt: 0.05 Time: 32.35 to 32.4
CFL: 0.0408462 (conv: 0.0405697 diff: 0 src: 0.00336062 )

Godunov:
  System                     Iters      Initial residual        Final residual
  ----------------------------------------------------------------------------
  MAC_projection                 8        0.002234615956       5.159340362e-15
  tke_solve                      3         0.02751940316       1.701916386e-12
  sdr_solve                      2       3.796185138e+16            62511.6932
  velocity_solve                 1       3.982012586e-08       2.339461957e-11
  Nodal_projection               6       0.0007589126614       6.856857704e-16

WallClockTime: 648 Pre: 0.0042 Solve: 2.592 Post: 1.02e-05 Total: 2.596
Solve time per cell: 1.953e-05

==============================================================================
Step: 649 dt: 0.05 Time: 32.4 to 32.45
CFL: 0.040846 (conv: 0.0405694 diff: 0 src: 0.00336074 )

Godunov:
  System                     Iters      Initial residual        Final residual
  ----------------------------------------------------------------------------
  MAC_projection                 8        0.002234711382       5.159484358e-15
  tke_solve                      3         0.02751884091       1.699557162e-12
  sdr_solve                      2       3.797022601e+16           27187.09682
  velocity_solve                 1       3.979616814e-08       2.337863236e-11
  Nodal_projection               6       0.0007589290214       6.856413392e-16

WallClockTime: 649 Pre: 0.00422 Solve: 2.607 Post: 1.01e-05 Total: 2.612
Solve time per cell: 1.965e-05

==============================================================================
Step: 650 dt: 0.05 Time: 32.45 to 32.5
CFL: 0.0408457 (conv: 0.0405692 diff: 0 src: 0.00336084 )

Godunov:
  System                     Iters      Initial residual        Final residual
  ----------------------------------------------------------------------------
  MAC_projection                 8          0.0022348037       5.158371356e-15
  tke_solve                      3         0.02751908627       1.704164587e-12
  sdr_solve                      2       3.797522206e+16           57444.79402
  velocity_solve                 1       3.977280549e-08       2.336619787e-11
  Nodal_projection               6       0.0007589451369        6.85708412e-16

WallClockTime: 650 Pre: 0.00421 Solve: 2.59 Post: 1.03e-05 Total: 2.594
Solve time per cell: 1.951e-05

==============================================================================
Step: 651 dt: 0.05 Time: 32.5 to 32.55
CFL: 0.0408455 (conv: 0.0405689 diff: 0 src: 0.00336091 )

Godunov:
  System                     Iters      Initial residual        Final residual
  ----------------------------------------------------------------------------
  MAC_projection                 8        0.002234892777       5.138908233e-15
  tke_solve                      3         0.02751910452       1.707134434e-12
  sdr_solve                      2       3.797809089e+16           41948.99062
  velocity_solve                 1        3.97500628e-08       2.335021065e-11
  Nodal_projection               6       0.0007589609911       6.856842302e-16

WallClockTime: 651 Pre: 0.00608 Solve: 2.592 Post: 9.72e-06 Total: 2.598
Solve time per cell: 1.953e-05

==============================================================================
Step: 652 dt: 0.05 Time: 32.55 to 32.6
CFL: 0.0408452 (conv: 0.0405687 diff: 0 src: 0.00336096 )

Godunov:
  System                     Iters      Initial residual        Final residual
  ----------------------------------------------------------------------------
  MAC_projection                 8        0.002234978485       5.127754504e-15
  tke_solve                      3         0.02751925113        1.70866099e-12
  sdr_solve                      2       3.798138722e+16           78229.63111
  velocity_solve                 1       3.972796669e-08       2.333955251e-11
  Nodal_projection               6       0.0007589765777       6.856870658e-16

WallClockTime: 652 Pre: 0.00445 Solve: 2.597 Post: 1.12e-05 Total: 2.601
Solve time per cell: 1.957e-05

==============================================================================
Step: 653 dt: 0.05 Time: 32.6 to 32.65
CFL: 0.040845 (conv: 0.0405684 diff: 0 src: 0.00336099 )

Godunov:
  System                     Iters      Initial residual        Final residual
  ----------------------------------------------------------------------------
  MAC_projection                 8        0.002235060708       5.117862853e-15
  tke_solve                      3         0.02751707552       1.709576924e-12
  sdr_solve                      2       3.794713535e+16           7636.235294
  velocity_solve                 1       3.970653317e-08       2.332711802e-11
  Nodal_projection               6       0.0007589919091       6.856689439e-16

WallClockTime: 653 Pre: 0.00422 Solve: 2.605 Post: 1.01e-05 Total: 2.609
Solve time per cell: 1.963e-05

==============================================================================
Step: 654 dt: 0.05 Time: 32.65 to 32.7
CFL: 0.0408447 (conv: 0.0405682 diff: 0 src: 0.00336099 )

Godunov:
  System                     Iters      Initial residual        Final residual
  ----------------------------------------------------------------------------
  MAC_projection                 8        0.002235139344       5.174871558e-15
  tke_solve                      3         0.02751940304       1.701916386e-12
  sdr_solve                      2       3.796185139e+16           62504.60895
  velocity_solve                 1       3.968578177e-08       2.331468352e-11
  Nodal_projection               6       0.0007590070645       6.856988018e-16

WallClockTime: 654 Pre: 0.00423 Solve: 2.933 Post: 1.01e-05 Total: 2.937
Solve time per cell: 2.21e-05

==============================================================================
Step: 655 dt: 0.05 Time: 32.7 to 32.75
CFL: 0.0408445 (conv: 0.0405679 diff: 0 src: 0.00336096 )

Godunov:
  System                     Iters      Initial residual        Final residual
  ----------------------------------------------------------------------------
  MAC_projection                 8        0.002235214299       5.177483808e-15
  tke_solve                      3         0.02751884079       1.699557162e-12
  sdr_solve                      2       3.797022602e+16           27184.54221
  velocity_solve                 1       3.966573203e-08       2.330224902e-11
  Nodal_projection               6       0.0007590219887       6.856776227e-16

WallClockTime: 655 Pre: 0.00442 Solve: 2.588 Post: 1.02e-05 Total: 2.592
Solve time per cell: 1.95e-05

==============================================================================
Step: 656 dt: 0.05 Time: 32.75 to 32.8
CFL: 0.0408442 (conv: 0.0405677 diff: 0 src: 0.00336091 )

Godunov:
  System                     Iters      Initial residual        Final residual
  ----------------------------------------------------------------------------
  MAC_projection                 8        0.002235285481       5.187597381e-15
  tke_solve                      3         0.02751908616       1.704164587e-12
  sdr_solve                      2       3.797522211e+16           57439.31125
  velocity_solve                 1       3.964639639e-08       2.329159088e-11
  Nodal_projection               6        0.000759036903        6.85676377e-16

WallClockTime: 656 Pre: 0.00424 Solve: 2.604 Post: 9.79e-06 Total: 2.608
Solve time per cell: 1.962e-05

==============================================================================
Step: 657 dt: 0.05 Time: 32.8 to 32.85
CFL: 0.040844 (conv: 0.0405674 diff: 0 src: 0.00336082 )

Godunov:
  System                     Iters      Initial residual        Final residual
  ----------------------------------------------------------------------------
  MAC_projection                 8        0.002235352825       5.180204478e-15
  tke_solve                      3         0.02751910441       1.707162189e-12
  sdr_solve                      2       3.797809093e+16           41944.68852
  velocity_solve                 1        3.96277926e-08       2.327915638e-11
  Nodal_projection               6       0.0007590518696       6.856986744e-16

WallClockTime: 657 Pre: 0.00426 Solve: 2.588 Post: 1.12e-05 Total: 2.593
Solve time per cell: 1.95e-05

==============================================================================
Step: 658 dt: 0.05 Time: 32.85 to 32.9
CFL: 0.0408437 (conv: 0.0405672 diff: 0 src: 0.00336071 )

Godunov:
  System                     Iters      Initial residual        Final residual
  ----------------------------------------------------------------------------
  MAC_projection                 8        0.002235416269       5.177538018e-15
  tke_solve                      3         0.02751925103       1.708633235e-12
  sdr_solve                      2       3.798138726e+16           78220.83013
  velocity_solve                 1       3.960992956e-08       2.327205095e-11
  Nodal_projection               6       0.0007590669492        6.85659792e-16

WallClockTime: 658 Pre: 0.00422 Solve: 2.606 Post: 1.01e-05 Total: 2.611
Solve time per cell: 1.964e-05

==============================================================================
Step: 659 dt: 0.05 Time: 32.9 to 32.95
CFL: 0.0408435 (conv: 0.0405669 diff: 0 src: 0.00336056 )

Godunov:
  System                     Iters      Initial residual        Final residual
  ----------------------------------------------------------------------------
  MAC_projection                 8        0.002235475761       5.188039532e-15
  tke_solve                      3          0.0275170754       1.709576924e-12
  sdr_solve                      2       3.794713539e+16           7635.451706
  velocity_solve                 1       3.959282147e-08       2.326139281e-11
  Nodal_projection               6       0.0007590822064       6.856844039e-16

WallClockTime: 659 Pre: 0.00422 Solve: 2.604 Post: 1.04e-05 Total: 2.609
Solve time per cell: 1.963e-05

==============================================================================
Step: 660 dt: 0.05 Time: 32.95 to 33
CFL: 0.0408432 (conv: 0.0405667 diff: 0 src: 0.00336038 )

Godunov:
  System                     Iters      Initial residual        Final residual
  ----------------------------------------------------------------------------
  MAC_projection                 8        0.002235531262       5.220003168e-15
  tke_solve                      3         0.02751940291        1.70188863e-12
  sdr_solve                      2        3.79618514e+16           62497.53018
  velocity_solve                 1        3.95764701e-08       2.325073467e-11
  Nodal_projection               6       0.0007590977111       6.857180834e-16

WallClockTime: 660 Pre: 0.00425 Solve: 2.597 Post: 1.11e-05 Total: 2.602
Solve time per cell: 1.957e-05

==============================================================================
Step: 661 dt: 0.05 Time: 33 to 33.05
CFL: 0.0408429 (conv: 0.0405665 diff: 0 src: 0.00336017 )

Godunov:
  System                     Iters      Initial residual        Final residual
  ----------------------------------------------------------------------------
  MAC_projection                 8        0.002235582741       5.219366199e-15
