==============================================================================
                AMR-Wind (https://github.com/exawind/amr-wind)

  AMR-Wind version :: caebcd1-DIRTY
  AMR-Wind Git SHA :: caebcd1f2841cf780ea3dcd566f05dbc21bc476f-DIRTY
  AMReX version    :: 23.04-23-g2f47d132d71c

  Exec. time       :: Fri Aug  4 12:01:31 2023
  Build time       :: Jul 18 2023 12:15:26
  C++ compiler     :: GNU 9.3.0

  MPI              :: ON    (Num. ranks = 360)
  GPU              :: OFF
  OpenMP           :: OFF

  Enabled third-party libraries: 
    NetCDF    4.9.2
    HYPRE     2.28.0
    OpenFAST  

           This software is released under the BSD 3-clause license.           
 See https://github.com/Exawind/amr-wind/blob/development/LICENSE for details. 
------------------------------------------------------------------------------

MPI initialized with 360 MPI processes
MPI initialized with thread support level 0
AMReX (23.04-23-g2f47d132d71c) initialized
Initializing AMR-Wind ...
Initializing boundary conditions for velocity_mueff
Initializing boundary conditions for velocity
Initializing boundary conditions for density
Initializing boundary conditions for p
Initializing boundary conditions for velocity_src_term
Initializing boundary conditions for gp
Creating PDESystem instance: ICNS-Godunov
Creating Physics instance: FreeStream
Creating Physics instance: Actuator
Creating TurbulenceModel instance: Laminar-ConstTransport
Creating RefinementCriteria instance: GeometryRefinement
(-2400 -720 -480)
(2400 -720 -480)
(2400 720 -480)
(-2400 720 -480)
(-2400 -720 480)
(2400 -720 480)
(2400 720 480)
(-2400 720 480)
Creating GeometryType instance: box
Creating RefinementCriteria instance: GeometryRefinement
(-600 -600 -288)
(600 -600 -288)
(600 600 -288)
(-600 600 -288)
(-600 -600 288)
(600 -600 288)
(600 600 288)
(-600 600 288)
Creating GeometryType instance: box
Creating PostProcessBase instance: Sampling
Initializing I/O manager
Creating UDF instance: ConstValue
Creating UDF instance: ConstValue
Creating ActuatorModel instance: JoukowskyDisk
Creating mesh... done
Grid summary: 
  Level 0   576 grids  2359296 cells  100 % of domain
            smallest grid: 16 x 16 x 16  biggest grid: 16 x 16 x 16
  Level 1   560 grids  8888320 cells  47.09201389 % of domain
            smallest grid: 16 x 32 x 16  biggest grid: 32 x 32 x 16
  Level 2   512 grids  8388608 cells  5.555555556 % of domain
            smallest grid: 32 x 32 x 16  biggest grid: 32 x 32 x 16

For mflux_type, default is upwind
Creating MomentumSource instance: ActuatorForcing
Creating SamplerBase instance: PlaneSampler
Begin initial projection
  Nodal_projection               0       1.665334537e-16       1.665334537e-16
Completed initial projection

Begin initial pressure iterations. Num. iters = 3
dt: 0.1
CFL: 0.16 (conv: 0.16 diff: 0 src: 0 )

Godunov:
  System                     Iters      Initial residual        Final residual
  ----------------------------------------------------------------------------
  MAC_projection                 0       1.088018564e-16       1.088018564e-16
  velocity_solve                 0                     0                     0
  Nodal_projection               0                     0                     0

Godunov:
  System                     Iters      Initial residual        Final residual
  ----------------------------------------------------------------------------
  MAC_projection                 0       1.088018564e-16       1.088018564e-16
  velocity_solve                 0                     0                     0
  Nodal_projection               0                     0                     0

Godunov:
  System                     Iters      Initial residual        Final residual
  ----------------------------------------------------------------------------
  MAC_projection                 0       1.088018564e-16       1.088018564e-16
  velocity_solve                 0                     0                     0
  Nodal_projection               0                     0                     0
Completed initial pressure iterations

Writing plot file       plt00000 at time 0
Initialization successful. Time elapsed = 1.527699875

Begin simulation: 
  Run till 600 seconds 
  Fixed timestepping with dt = 0.1; max. CFL from inputs = 0.5

==============================================================================
Step: 1 dt: 0.1 Time: 0 to 0.1
CFL: 0.16 (conv: 0.16 diff: 0 src: 0 )

Godunov:
  System                     Iters      Initial residual        Final residual
  ----------------------------------------------------------------------------
  MAC_projection                 8         0.03550827881       2.163336518e-13
  velocity_solve                 1       1.466101374e-08       6.430411759e-12
  Nodal_projection               7         0.05344290386       1.161181306e-13

WallClockTime: 1 Pre: 0.00862 Solve: 1.212 Post: 1.06e-05 Total: 1.22
Solve time per cell: 2.221e-05

==============================================================================
Step: 2 dt: 0.1 Time: 0.1 to 0.2
CFL: 0.195202 (conv: 0.161513 diff: 0 src: 0.0810944 )

Godunov:
  System                     Iters      Initial residual        Final residual
  ----------------------------------------------------------------------------
  MAC_projection                 8         0.01154861971       1.175548916e-14
  velocity_solve                 1       2.248743769e-08       1.035793673e-11
  Nodal_projection               7         0.05755028422       1.158846172e-13

WallClockTime: 2 Pre: 0.0042 Solve: 1.207 Post: 1.01e-05 Total: 1.211
Solve time per cell: 2.212e-05

==============================================================================
Step: 3 dt: 0.1 Time: 0.2 to 0.3
CFL: 0.174493 (conv: 0.163021 diff: 0 src: 0.0447423 )

Godunov:
  System                     Iters      Initial residual        Final residual
  ----------------------------------------------------------------------------
  MAC_projection                 8         0.01566593093       1.387540256e-14
  velocity_solve                 1       3.334779208e-08       1.539746108e-11
  Nodal_projection               7         0.05764362545       1.158838447e-13

WallClockTime: 3 Pre: 0.00368 Solve: 1.19 Post: 1.01e-05 Total: 1.193
Solve time per cell: 2.181e-05

==============================================================================
Step: 4 dt: 0.1 Time: 0.3 to 0.4
CFL: 0.175833 (conv: 0.16454 diff: 0 src: 0.044561 )

Godunov:
  System                     Iters      Initial residual        Final residual
  ----------------------------------------------------------------------------
  MAC_projection                 8         0.01897781157       1.412064909e-14
  velocity_solve                 1       4.425444367e-08       2.039968194e-11
  Nodal_projection               7         0.05761387119       1.158883882e-13

WallClockTime: 4 Pre: 0.00336 Solve: 1.234 Post: 9.67e-06 Total: 1.237
Solve time per cell: 2.262e-05

==============================================================================
Step: 5 dt: 0.1 Time: 0.4 to 0.5
CFL: 0.1772 (conv: 0.166049 diff: 0 src: 0.0444525 )

Godunov:
  System                     Iters      Initial residual        Final residual
  ----------------------------------------------------------------------------
  MAC_projection                 8         0.02153437454       1.451790077e-14
  velocity_solve                 1       5.478906395e-08       2.519762177e-11
  Nodal_projection               7         0.05760611992       1.158949679e-13

WallClockTime: 5 Pre: 0.0034 Solve: 1.185 Post: 1e-05 Total: 1.189
Solve time per cell: 2.173e-05

==============================================================================
Step: 6 dt: 0.1 Time: 0.5 to 0.6
CFL: 0.17854 (conv: 0.16752 diff: 0 src: 0.044358 )

Godunov:
  System                     Iters      Initial residual        Final residual
  ----------------------------------------------------------------------------
  MAC_projection                 8         0.02360866134       1.493770385e-14
  velocity_solve                 1       6.468857805e-08       2.968114643e-11
  Nodal_projection               7         0.05760002613       1.159034755e-13

WallClockTime: 6 Pre: 0.00339 Solve: 1.182 Post: 1.15e-05 Total: 1.186
Solve time per cell: 2.168e-05

==============================================================================
Step: 7 dt: 0.1 Time: 0.6 to 0.7
CFL: 0.179827 (conv: 0.168929 diff: 0 src: 0.0442689 )

Godunov:
  System                     Iters      Initial residual        Final residual
  ----------------------------------------------------------------------------
  MAC_projection                 8         0.02532350133       1.502140426e-14
  velocity_solve                 1       7.381499501e-08       3.377564894e-11
  Nodal_projection               7         0.05758835624       1.159137212e-13

WallClockTime: 7 Pre: 0.00341 Solve: 1.208 Post: 9.53e-06 Total: 1.212
Solve time per cell: 2.215e-05

==============================================================================
Step: 8 dt: 0.1 Time: 0.7 to 0.8
CFL: 0.181053 (conv: 0.170263 diff: 0 src: 0.0441988 )

Godunov:
  System                     Iters      Initial residual        Final residual
  ----------------------------------------------------------------------------
  MAC_projection                 8         0.02698634585       1.569794641e-14
  velocity_solve                 1       8.198025192e-08       3.740474597e-11
  Nodal_projection               7         0.05757344732       1.159258507e-13

WallClockTime: 8 Pre: 0.00329 Solve: 1.186 Post: 9.77e-06 Total: 1.189
Solve time per cell: 2.174e-05

==============================================================================
Step: 9 dt: 0.1 Time: 0.8 to 0.9
CFL: 0.182203 (conv: 0.171505 diff: 0 src: 0.044149 )

Godunov:
  System                     Iters      Initial residual        Final residual
  ----------------------------------------------------------------------------
  MAC_projection                 8          0.0288431955       1.568623703e-14
  velocity_solve                 1       8.908807558e-08       4.051692315e-11
  Nodal_projection               7         0.05755755828       1.159401385e-13

WallClockTime: 9 Pre: 0.00312 Solve: 1.237 Post: 1.01e-05 Total: 1.24
Solve time per cell: 2.268e-05

==============================================================================
Step: 10 dt: 0.1 Time: 0.9 to 1
CFL: 0.183246 (conv: 0.172639 diff: 0 src: 0.0440878 )

Godunov:
  System                     Iters      Initial residual        Final residual
  ----------------------------------------------------------------------------
  MAC_projection                 8         0.03050292308       1.600932928e-14
  velocity_solve                 1       9.507998833e-08       4.309619328e-11
  Nodal_projection               7         0.05754172355       1.159564727e-13

WallClockTime: 10 Pre: 0.00321 Solve: 1.182 Post: 1.12e-05 Total: 1.185
Solve time per cell: 2.167e-05

==============================================================================
Step: 11 dt: 0.1 Time: 1 to 1.1
CFL: 0.184176 (conv: 0.173658 diff: 0 src: 0.0440141 )

Godunov:
  System                     Iters      Initial residual        Final residual
  ----------------------------------------------------------------------------
  MAC_projection                 8         0.03193164546       1.601496713e-14
  velocity_solve                 1       9.979344284e-08        4.50626203e-11
  Nodal_projection               7         0.05752544655       1.159746026e-13

WallClockTime: 11 Pre: 0.00698 Solve: 1.213 Post: 8e-06 Total: 1.22
Solve time per cell: 2.224e-05

==============================================================================
Step: 12 dt: 0.1 Time: 1.1 to 1.2
CFL: 0.184996 (conv: 0.174549 diff: 0 src: 0.0439625 )

Godunov:
  System                     Iters      Initial residual        Final residual
  ----------------------------------------------------------------------------
  MAC_projection                 8         0.03309085303       1.667155997e-14
  velocity_solve                 1       1.033034369e-07       4.646238949e-11
  Nodal_projection               7         0.05750733264       1.159951516e-13

WallClockTime: 12 Pre: 0.00308 Solve: 1.199 Post: 1e-05 Total: 1.202
Solve time per cell: 2.198e-05

==============================================================================
Step: 13 dt: 0.1 Time: 1.2 to 1.3
CFL: 0.185697 (conv: 0.175313 diff: 0 src: 0.043913 )

Godunov:
  System                     Iters      Initial residual        Final residual
  ----------------------------------------------------------------------------
  MAC_projection                 8         0.03397721968       1.832388408e-14
  velocity_solve                 1       1.056896011e-07       4.733635706e-11
  Nodal_projection               7         0.05749466259       1.160177538e-13

WallClockTime: 13 Pre: 0.00343 Solve: 1.217 Post: 8.91e-06 Total: 1.221
Solve time per cell: 2.232e-05

==============================================================================
Step: 14 dt: 0.1 Time: 1.3 to 1.4
CFL: 0.186286 (conv: 0.175952 diff: 0 src: 0.0438763 )

Godunov:
  System                     Iters      Initial residual        Final residual
  ----------------------------------------------------------------------------
  MAC_projection                 8         0.03468030467       1.798821508e-14
  velocity_solve                 1       1.070865459e-07       4.775380091e-11
  Nodal_projection               7         0.05748935301       1.160429039e-13

WallClockTime: 14 Pre: 0.00335 Solve: 1.221 Post: 1.03e-05 Total: 1.224
Solve time per cell: 2.238e-05

==============================================================================
Step: 15 dt: 0.1 Time: 1.4 to 1.5
CFL: 0.187307 (conv: 0.177045 diff: 0 src: 0.0438429 )

Godunov:
  System                     Iters      Initial residual        Final residual
  ----------------------------------------------------------------------------
  MAC_projection                 7         0.03518509193       3.471441884e-13
  velocity_solve                 1       1.083966676e-07       4.783373697e-11
  Nodal_projection               7          0.0574856708       1.160697142e-13

WallClockTime: 15 Pre: 0.00331 Solve: 1.173 Post: 1.02e-05 Total: 1.176
Solve time per cell: 2.151e-05

==============================================================================
Step: 16 dt: 0.1 Time: 1.5 to 1.6
CFL: 0.188424 (conv: 0.178238 diff: 0 src: 0.0438098 )

Godunov:
  System                     Iters      Initial residual        Final residual
  ----------------------------------------------------------------------------
  MAC_projection                 8          0.0354866623       1.812092143e-14
  velocity_solve                 1       1.147998123e-07       5.072564591e-11
  Nodal_projection               7         0.05749044602       1.160989165e-13

WallClockTime: 16 Pre: 0.00327 Solve: 1.185 Post: 8.64e-06 Total: 1.189
Solve time per cell: 2.173e-05

==============================================================================
Step: 17 dt: 0.1 Time: 1.6 to 1.7
CFL: 0.189505 (conv: 0.179388 diff: 0 src: 0.0437865 )

Godunov:
  System                     Iters      Initial residual        Final residual
  ----------------------------------------------------------------------------
  MAC_projection                 8          0.0356068572       1.823411214e-14
  velocity_solve                 1       1.202058364e-07       5.315392571e-11
  Nodal_projection               7         0.05749534014       1.161301517e-13

WallClockTime: 17 Pre: 0.00308 Solve: 1.185 Post: 1.01e-05 Total: 1.188
Solve time per cell: 2.173e-05

==============================================================================
Step: 18 dt: 0.1 Time: 1.7 to 1.8
CFL: 0.190537 (conv: 0.180489 diff: 0 src: 0.0437555 )

Godunov:
  System                     Iters      Initial residual        Final residual
  ----------------------------------------------------------------------------
  MAC_projection                 8         0.03565534891       1.801770538e-14
  velocity_solve                 1       1.245660748e-07       5.509015466e-11
  Nodal_projection               7         0.05749865139       1.161631216e-13

WallClockTime: 18 Pre: 0.0031 Solve: 1.195 Post: 9.27e-06 Total: 1.198
Solve time per cell: 2.19e-05

==============================================================================
Step: 19 dt: 0.1 Time: 1.8 to 1.9
CFL: 0.191522 (conv: 0.181537 diff: 0 src: 0.0437305 )

Godunov:
  System                     Iters      Initial residual        Final residual
  ----------------------------------------------------------------------------
  MAC_projection                 8         0.03563460973       1.759942019e-14
  velocity_solve                 1       1.278503579e-07       5.650591106e-11
  Nodal_projection               7         0.05749959287       1.161979143e-13

WallClockTime: 19 Pre: 0.0031 Solve: 1.208 Post: 9.51e-06 Total: 1.211
Solve time per cell: 2.214e-05

==============================================================================
Step: 20 dt: 0.1 Time: 1.9 to 2
CFL: 0.192455 (conv: 0.182529 diff: 0 src: 0.0437083 )

Godunov:
  System                     Iters      Initial residual        Final residual
  ----------------------------------------------------------------------------
  MAC_projection                 8         0.03551774126       1.878813945e-14
  velocity_solve                 1       1.300897008e-07        5.74384984e-11
  Nodal_projection               7         0.05749905711       1.162346146e-13

WallClockTime: 20 Pre: 0.00331 Solve: 1.66 Post: 8.62e-06 Total: 1.664
Solve time per cell: 3.044e-05

==============================================================================
Step: 21 dt: 0.1 Time: 2 to 2.1
CFL: 0.193334 (conv: 0.183462 diff: 0 src: 0.0436863 )

Godunov:
  System                     Iters      Initial residual        Final residual
  ----------------------------------------------------------------------------
  MAC_projection                 8         0.03532899527       1.873544722e-14
  velocity_solve                 1       1.313748612e-07       5.791100932e-11
  Nodal_projection               7         0.05749689672       1.162735984e-13

WallClockTime: 21 Pre: 0.00627 Solve: 1.188 Post: 9.03e-06 Total: 1.194
Solve time per cell: 2.178e-05

==============================================================================
Step: 22 dt: 0.1 Time: 2.1 to 2.2
CFL: 0.194162 (conv: 0.184343 diff: 0 src: 0.0436632 )

Godunov:
  System                     Iters      Initial residual        Final residual
  ----------------------------------------------------------------------------
  MAC_projection                 8         0.03508994331       1.844173685e-14
  velocity_solve                 1       1.318023397e-07       5.798028724e-11
  Nodal_projection               7         0.05749342038       1.163149336e-13

WallClockTime: 22 Pre: 0.00308 Solve: 1.183 Post: 1.14e-05 Total: 1.186
Solve time per cell: 2.169e-05

==============================================================================
Step: 23 dt: 0.1 Time: 2.2 to 2.3
CFL: 0.19493 (conv: 0.185164 diff: 0 src: 0.0436305 )

Godunov:
  System                     Iters      Initial residual        Final residual
  ----------------------------------------------------------------------------
  MAC_projection                 8          0.0348230064       1.767840431e-14
  velocity_solve                 1       1.314324916e-07       5.768008293e-11
  Nodal_projection               7         0.05749151282       1.163591623e-13

WallClockTime: 23 Pre: 0.00308 Solve: 1.211 Post: 8.59e-06 Total: 1.214
Solve time per cell: 2.221e-05

==============================================================================
Step: 24 dt: 0.1 Time: 2.3 to 2.4
CFL: 0.195643 (conv: 0.185927 diff: 0 src: 0.0435984 )

Godunov:
  System                     Iters      Initial residual        Final residual
  ----------------------------------------------------------------------------
  MAC_projection                 8         0.03453964566       1.734766844e-14
  velocity_solve                 1       1.302992452e-07       5.702460726e-11
  Nodal_projection               7         0.05749081809       1.164051596e-13

WallClockTime: 24 Pre: 0.00306 Solve: 1.183 Post: 9.03e-06 Total: 1.186
Solve time per cell: 2.168e-05

==============================================================================
Step: 25 dt: 0.1 Time: 2.4 to 2.5
CFL: 0.196301 (conv: 0.186632 diff: 0 src: 0.0435658 )

Godunov:
  System                     Iters      Initial residual        Final residual
  ----------------------------------------------------------------------------
  MAC_projection                 8          0.0342564278       1.763877672e-14
  velocity_solve                 1       1.287209468e-07        5.61666269e-11
  Nodal_projection               7         0.05749130772       1.164533964e-13

WallClockTime: 25 Pre: 0.00308 Solve: 1.182 Post: 9.78e-06 Total: 1.186
Solve time per cell: 2.168e-05

==============================================================================
Step: 26 dt: 0.1 Time: 2.5 to 2.6
CFL: 0.196955 (conv: 0.18733 diff: 0 src: 0.0435413 )

Godunov:
  System                     Iters      Initial residual        Final residual
  ----------------------------------------------------------------------------
  MAC_projection                 8         0.03398224078       1.821654806e-14
  velocity_solve                 1       1.283944062e-07       5.563549621e-11
  Nodal_projection               7         0.05749108306       1.165040049e-13

WallClockTime: 26 Pre: 0.00308 Solve: 1.182 Post: 1.14e-05 Total: 1.185
Solve time per cell: 2.167e-05

==============================================================================
Step: 27 dt: 0.1 Time: 2.6 to 2.7
CFL: 0.19784 (conv: 0.188268 diff: 0 src: 0.0435183 )

Godunov:
  System                     Iters      Initial residual        Final residual
  ----------------------------------------------------------------------------
  MAC_projection                 8         0.03373326182       1.863027961e-14
  velocity_solve                 1       1.302472619e-07       5.632649902e-11
  Nodal_projection               7         0.05749071743       1.165569275e-13

WallClockTime: 27 Pre: 0.00316 Solve: 1.184 Post: 9.97e-06 Total: 1.187
Solve time per cell: 2.171e-05

==============================================================================
Step: 28 dt: 0.1 Time: 2.7 to 2.8
CFL: 0.198669 (conv: 0.189147 diff: 0 src: 0.0434944 )

Godunov:
  System                     Iters      Initial residual        Final residual
  ----------------------------------------------------------------------------
  MAC_projection                 8         0.03354447594       1.791405566e-14
  velocity_solve                 1       1.312458817e-07       5.662847968e-11
  Nodal_projection               7         0.05749154244       1.166133061e-13

WallClockTime: 28 Pre: 0.00308 Solve: 1.184 Post: 9.22e-06 Total: 1.187
Solve time per cell: 2.17e-05

==============================================================================
Step: 29 dt: 0.1 Time: 2.8 to 2.9
CFL: 0.199441 (conv: 0.189967 diff: 0 src: 0.0434688 )

Godunov:
  System                     Iters      Initial residual        Final residual
  ----------------------------------------------------------------------------
  MAC_projection                 8         0.03339749423       1.782081427e-14
  velocity_solve                 1       1.315106886e-07       5.660893976e-11
  Nodal_projection               7         0.05749093462       1.166721274e-13

WallClockTime: 29 Pre: 0.0031 Solve: 1.182 Post: 8.83e-06 Total: 1.185
Solve time per cell: 2.167e-05

==============================================================================
Step: 30 dt: 0.1 Time: 2.9 to 3
CFL: 0.200156 (conv: 0.190729 diff: 0 src: 0.0434396 )

Godunov:
  System                     Iters      Initial residual        Final residual
  ----------------------------------------------------------------------------
  MAC_projection                 8         0.03328886706       1.782390424e-14
  velocity_solve                 1       1.311597355e-07       5.632116995e-11
  Nodal_projection               7         0.05749060681       1.167343132e-13

WallClockTime: 30 Pre: 0.00309 Solve: 1.211 Post: 9.6e-06 Total: 1.214
Solve time per cell: 2.22e-05

==============================================================================
Step: 31 dt: 0.1 Time: 3 to 3.1
CFL: 0.20084 (conv: 0.191457 diff: 0 src: 0.0434129 )

Godunov:
  System                     Iters      Initial residual        Final residual
  ----------------------------------------------------------------------------
  MAC_projection                 8         0.03321485538       1.890805221e-14
  velocity_solve                 1        1.30316355e-07       5.581313189e-11
  Nodal_projection               7         0.05748701765        1.16799755e-13

WallClockTime: 31 Pre: 0.00619 Solve: 1.197 Post: 9.91e-06 Total: 1.203
Solve time per cell: 2.195e-05

==============================================================================
Step: 32 dt: 0.1 Time: 3.1 to 3.2
CFL: 0.201478 (conv: 0.192136 diff: 0 src: 0.0433856 )

Godunov:
  System                     Iters      Initial residual        Final residual
  ----------------------------------------------------------------------------
  MAC_projection                 8         0.03317101857       1.810162263e-14
  velocity_solve                 1       1.290370104e-07       5.513456358e-11
  Nodal_projection               7         0.05748890608       1.168680631e-13

WallClockTime: 32 Pre: 0.00343 Solve: 1.214 Post: 9.43e-06 Total: 1.218
Solve time per cell: 2.226e-05

==============================================================================
Step: 33 dt: 0.1 Time: 3.2 to 3.3
CFL: 0.202063 (conv: 0.192767 diff: 0 src: 0.0433388 )

Godunov:
  System                     Iters      Initial residual        Final residual
  ----------------------------------------------------------------------------
  MAC_projection                 8         0.03315261352        1.79368239e-14
  velocity_solve                 1        1.27489276e-07       5.435651929e-11
  Nodal_projection               7         0.05749031612       1.169393595e-13

WallClockTime: 33 Pre: 0.00306 Solve: 1.183 Post: 9.99e-06 Total: 1.186
Solve time per cell: 2.168e-05

==============================================================================
Step: 34 dt: 0.1 Time: 3.3 to 3.4
CFL: 0.20261 (conv: 0.193353 diff: 0 src: 0.0433087 )

Godunov:
  System                     Iters      Initial residual        Final residual
  ----------------------------------------------------------------------------
  MAC_projection                 8         0.03349032513        1.77748441e-14
  velocity_solve                 1       1.257959337e-07        5.35411715e-11
  Nodal_projection               7         0.05749136876       1.170144676e-13

WallClockTime: 34 Pre: 0.00309 Solve: 1.211 Post: 9.31e-06 Total: 1.215
Solve time per cell: 2.221e-05

==============================================================================
Step: 35 dt: 0.1 Time: 3.4 to 3.5
CFL: 0.203118 (conv: 0.193895 diff: 0 src: 0.04328 )

Godunov:
  System                     Iters      Initial residual        Final residual
  ----------------------------------------------------------------------------
  MAC_projection                 8         0.03378275094       1.832366724e-14
  velocity_solve                 1       1.240280341e-07       5.272227099e-11
  Nodal_projection               7         0.05749227753       1.170935161e-13

WallClockTime: 35 Pre: 0.00308 Solve: 1.184 Post: 8.98e-06 Total: 1.187
Solve time per cell: 2.17e-05

==============================================================================
Step: 36 dt: 0.1 Time: 3.5 to 3.6
CFL: 0.203585 (conv: 0.194397 diff: 0 src: 0.0432487 )

Godunov:
  System                     Iters      Initial residual        Final residual
  ----------------------------------------------------------------------------
  MAC_projection                 8         0.03343354301       1.947172892e-14
  velocity_solve                 1       1.233547824e-07       5.246114654e-11
  Nodal_projection               7         0.05749330427       1.171763797e-13

WallClockTime: 36 Pre: 0.00306 Solve: 1.187 Post: 8.9e-06 Total: 1.19
Solve time per cell: 2.176e-05

==============================================================================
Step: 37 dt: 0.1 Time: 3.6 to 3.7
CFL: 0.204015 (conv: 0.19486 diff: 0 src: 0.0432164 )

Godunov:
  System                     Iters      Initial residual        Final residual
  ----------------------------------------------------------------------------
  MAC_projection                 8         0.03324181728       1.823470845e-14
  velocity_solve                 1       1.231580313e-07       5.232969613e-11
  Nodal_projection               7         0.05749417797       1.172632819e-13

WallClockTime: 37 Pre: 0.00313 Solve: 1.186 Post: 1.07e-05 Total: 1.189
Solve time per cell: 2.174e-05

==============================================================================
Step: 38 dt: 0.1 Time: 3.7 to 3.8
CFL: 0.204461 (conv: 0.19534 diff: 0 src: 0.0431834 )

Godunov:
  System                     Iters      Initial residual        Final residual
  ----------------------------------------------------------------------------
  MAC_projection                 8         0.03328462008         1.8431647e-14
  velocity_solve                 1       1.225516417e-07       5.203659725e-11
  Nodal_projection               7         0.05749482411       1.173545751e-13

WallClockTime: 38 Pre: 0.00308 Solve: 1.182 Post: 1.06e-05 Total: 1.185
Solve time per cell: 2.167e-05

==============================================================================
Step: 39 dt: 0.1 Time: 3.8 to 3.9
CFL: 0.205055 (conv: 0.195975 diff: 0 src: 0.0431496 )

Godunov:
  System                     Iters      Initial residual        Final residual
  ----------------------------------------------------------------------------
  MAC_projection                 8          0.0333283267       1.798526063e-14
  velocity_solve                 1       1.215964573e-07       5.159073169e-11
  Nodal_projection               7          0.0574953213       1.174493818e-13

WallClockTime: 39 Pre: 0.00308 Solve: 1.183 Post: 1.12e-05 Total: 1.186
Solve time per cell: 2.169e-05

==============================================================================
Step: 40 dt: 0.1 Time: 3.9 to 4
CFL: 0.205606 (conv: 0.196565 diff: 0 src: 0.0431128 )

Godunov:
  System                     Iters      Initial residual        Final residual
  ----------------------------------------------------------------------------
  MAC_projection                 8         0.03398135198       1.862214809e-14
  velocity_solve                 1       1.204468578e-07       5.106137735e-11
  Nodal_projection               7         0.05749576981       1.175488777e-13

WallClockTime: 40 Pre: 0.00308 Solve: 1.194 Post: 8.15e-06 Total: 1.197
Solve time per cell: 2.19e-05

==============================================================================
Step: 41 dt: 0.1 Time: 4 to 4.1
CFL: 0.206116 (conv: 0.197113 diff: 0 src: 0.0430787 )

Godunov:
  System                     Iters      Initial residual        Final residual
  ----------------------------------------------------------------------------
  MAC_projection                 8         0.03441169512       1.769385419e-14
  velocity_solve                 1       1.192471935e-07       5.051248309e-11
  Nodal_projection               7         0.05749597374       1.176529272e-13

WallClockTime: 41 Pre: 0.00638 Solve: 1.184 Post: 9.12e-06 Total: 1.191
Solve time per cell: 2.171e-05

==============================================================================
Step: 42 dt: 0.1 Time: 4.1 to 4.2
CFL: 0.206588 (conv: 0.19762 diff: 0 src: 0.0430443 )

Godunov:
  System                     Iters      Initial residual        Final residual
  ----------------------------------------------------------------------------
  MAC_projection                 8         0.03454718603       1.903642174e-14
  velocity_solve                 1       1.180583684e-07       4.996714154e-11
  Nodal_projection               7         0.05749608527       1.177617608e-13

WallClockTime: 42 Pre: 0.00307 Solve: 1.206 Post: 9.85e-06 Total: 1.209
Solve time per cell: 2.211e-05

==============================================================================
Step: 43 dt: 0.1 Time: 4.2 to 4.3
CFL: 0.207024 (conv: 0.198089 diff: 0 src: 0.0430095 )

Godunov:
  System                     Iters      Initial residual        Final residual
  ----------------------------------------------------------------------------
  MAC_projection                 8         0.03441008334       1.990324138e-14
  velocity_solve                 1       1.168632586e-07       4.942712906e-11
  Nodal_projection               7         0.05749596381       1.178754224e-13

WallClockTime: 43 Pre: 0.00312 Solve: 1.202 Post: 9.88e-06 Total: 1.206
Solve time per cell: 2.205e-05

==============================================================================
Step: 44 dt: 0.1 Time: 4.3 to 4.4
CFL: 0.207427 (conv: 0.198523 diff: 0 src: 0.0429758 )

Godunov:
  System                     Iters      Initial residual        Final residual
  ----------------------------------------------------------------------------
  MAC_projection                 8         0.03425917994       1.878900681e-14
  velocity_solve                 1       1.156350642e-07       4.889244565e-11
  Nodal_projection               7          0.0574948523       1.179944136e-13

WallClockTime: 44 Pre: 0.00325 Solve: 1.183 Post: 9.15e-06 Total: 1.186
Solve time per cell: 2.168e-05

==============================================================================
Step: 45 dt: 0.1 Time: 4.4 to 4.5
CFL: 0.207797 (conv: 0.198924 diff: 0 src: 0.0429411 )

Godunov:
  System                     Iters      Initial residual        Final residual
  ----------------------------------------------------------------------------
  MAC_projection                 8         0.03405579629       1.849236909e-14
  velocity_solve                 1       1.143945951e-07       4.837730216e-11
  Nodal_projection               7         0.05749442436       1.181183006e-13

WallClockTime: 45 Pre: 0.00309 Solve: 1.422 Post: 9.4e-06 Total: 1.425
Solve time per cell: 2.607e-05

==============================================================================
Step: 46 dt: 0.1 Time: 4.5 to 4.6
CFL: 0.208139 (conv: 0.199293 diff: 0 src: 0.0429107 )

Godunov:
  System                     Iters      Initial residual        Final residual
  ----------------------------------------------------------------------------
  MAC_projection                 8         0.03376065281       1.842688328e-14
  velocity_solve                 1       1.131811604e-07       4.788525132e-11
  Nodal_projection               7         0.05749394441        1.18246948e-13

WallClockTime: 46 Pre: 0.00305 Solve: 1.186 Post: 9.02e-06 Total: 1.189
Solve time per cell: 2.174e-05

==============================================================================
Step: 47 dt: 0.1 Time: 4.6 to 4.7
CFL: 0.208453 (conv: 0.199633 diff: 0 src: 0.0428798 )

Godunov:
  System                     Iters      Initial residual        Final residual
  ----------------------------------------------------------------------------
  MAC_projection                 8          0.0334234028       1.847155241e-14
  velocity_solve                 1       1.119951083e-07        4.77626827e-11
  Nodal_projection               7         0.05749327725       1.183811011e-13

WallClockTime: 47 Pre: 0.00306 Solve: 1.183 Post: 9.42e-06 Total: 1.186
Solve time per cell: 2.168e-05

==============================================================================
Step: 48 dt: 0.1 Time: 4.7 to 4.8
CFL: 0.208741 (conv: 0.199945 diff: 0 src: 0.0428503 )

Godunov:
  System                     Iters      Initial residual        Final residual
  ----------------------------------------------------------------------------
  MAC_projection                 8         0.03347788101       1.784304041e-14
  velocity_solve                 1        1.10828541e-07       4.784261876e-11
  Nodal_projection               7         0.05749280539       1.185211122e-13

WallClockTime: 48 Pre: 0.00311 Solve: 1.211 Post: 9.19e-06 Total: 1.215
Solve time per cell: 2.221e-05

==============================================================================
Step: 49 dt: 0.1 Time: 4.8 to 4.9
CFL: 0.209005 (conv: 0.20023 diff: 0 src: 0.0428248 )

Godunov:
  System                     Iters      Initial residual        Final residual
  ----------------------------------------------------------------------------
  MAC_projection                 8         0.03385509898       2.014274164e-14
  velocity_solve                 1       1.104929996e-07       4.790479124e-11
  Nodal_projection               7         0.05749253331       1.186666257e-13

WallClockTime: 49 Pre: 0.00312 Solve: 1.186 Post: 8.79e-06 Total: 1.189
Solve time per cell: 2.174e-05

==============================================================================
Step: 50 dt: 0.1 Time: 4.9 to 5
CFL: 0.209245 (conv: 0.200491 diff: 0 src: 0.0427982 )

Godunov:
  System                     Iters      Initial residual        Final residual
  ----------------------------------------------------------------------------
  MAC_projection                 8         0.03399602349       1.928805152e-14
  velocity_solve                 1       1.104630964e-07       4.792966024e-11
  Nodal_projection               7         0.05749231047       1.188181362e-13

WallClockTime: 50 Pre: 0.00304 Solve: 1.183 Post: 9.03e-06 Total: 1.186
Solve time per cell: 2.169e-05

==============================================================================
Step: 51 dt: 0.1 Time: 5 to 5.1
CFL: 0.209523 (conv: 0.200792 diff: 0 src: 0.042771 )

Godunov:
  System                     Iters      Initial residual        Final residual
  ----------------------------------------------------------------------------
  MAC_projection                 8         0.03397879158       1.888263444e-14
  velocity_solve                 1       1.103825298e-07       4.793321295e-11
  Nodal_projection               7         0.05749239062       1.189754235e-13

WallClockTime: 51 Pre: 0.00619 Solve: 1.235 Post: 1.04e-05 Total: 1.242
Solve time per cell: 2.265e-05

==============================================================================
Step: 52 dt: 0.1 Time: 5.1 to 5.2
CFL: 0.209876 (conv: 0.20117 diff: 0 src: 0.0427462 )

Godunov:
  System                     Iters      Initial residual        Final residual
  ----------------------------------------------------------------------------
  MAC_projection                 8         0.03435540272       1.990790345e-14
  velocity_solve                 1       1.102522429e-07        4.79065676e-11
  Nodal_projection               7         0.05749265113        1.19138396e-13

WallClockTime: 52 Pre: 0.00345 Solve: 1.184 Post: 8.62e-06 Total: 1.188
Solve time per cell: 2.171e-05

==============================================================================
Step: 53 dt: 0.1 Time: 5.2 to 5.3
CFL: 0.210201 (conv: 0.201518 diff: 0 src: 0.0427211 )

Godunov:
  System                     Iters      Initial residual        Final residual
  ----------------------------------------------------------------------------
  MAC_projection                 8         0.03466089778       2.029032866e-14
  velocity_solve                 1        1.10074561e-07       4.785150054e-11
  Nodal_projection               7         0.05749320064       1.193075214e-13

WallClockTime: 53 Pre: 0.00304 Solve: 1.189 Post: 9.92e-06 Total: 1.192
Solve time per cell: 2.181e-05

==============================================================================
Step: 54 dt: 0.1 Time: 5.3 to 5.4
CFL: 0.210499 (conv: 0.201839 diff: 0 src: 0.0426954 )

Godunov:
  System                     Iters      Initial residual        Final residual
  ----------------------------------------------------------------------------
  MAC_projection                 8         0.03477003212       2.009060507e-14
  velocity_solve                 1       1.098526621e-07       4.776801177e-11
  Nodal_projection               7         0.05749393607       1.194831452e-13

WallClockTime: 54 Pre: 0.00307 Solve: 1.183 Post: 9.42e-06 Total: 1.186
Solve time per cell: 2.168e-05

==============================================================================
Step: 55 dt: 0.1 Time: 5.4 to 5.5
CFL: 0.210797 (conv: 0.20216 diff: 0 src: 0.0426693 )

Godunov:
  System                     Iters      Initial residual        Final residual
  ----------------------------------------------------------------------------
  MAC_projection                 8         0.03464729888       2.037057318e-14
  velocity_solve                 1       1.095909532e-07       4.767031214e-11
  Nodal_projection               7         0.05749211268        1.19664976e-13

WallClockTime: 55 Pre: 0.00306 Solve: 1.186 Post: 8.94e-06 Total: 1.189
Solve time per cell: 2.175e-05

==============================================================================
Step: 56 dt: 0.1 Time: 5.5 to 5.6
CFL: 0.211071 (conv: 0.202456 diff: 0 src: 0.0426423 )

Godunov:
  System                     Iters      Initial residual        Final residual
  ----------------------------------------------------------------------------
  MAC_projection                 8         0.03421797897       2.037479479e-14
  velocity_solve                 1       1.092967832e-07       4.755840166e-11
  Nodal_projection               7         0.05749275792       1.198529462e-13

WallClockTime: 56 Pre: 0.00305 Solve: 1.183 Post: 9.59e-06 Total: 1.186
Solve time per cell: 2.169e-05

==============================================================================
Step: 57 dt: 0.1 Time: 5.6 to 5.7
CFL: 0.211319 (conv: 0.202728 diff: 0 src: 0.0426081 )

Godunov:
  System                     Iters      Initial residual        Final residual
  ----------------------------------------------------------------------------
  MAC_projection                 8         0.03433496147       2.028683211e-14
  velocity_solve                 1       1.089748967e-07       4.742695126e-11
  Nodal_projection               7         0.05749401075       1.200479433e-13

WallClockTime: 57 Pre: 0.00306 Solve: 1.212 Post: 9.17e-06 Total: 1.215
Solve time per cell: 2.221e-05

==============================================================================
Step: 58 dt: 0.1 Time: 5.7 to 5.8
CFL: 0.211547 (conv: 0.202977 diff: 0 src: 0.0425797 )

Godunov:
  System                     Iters      Initial residual        Final residual
  ----------------------------------------------------------------------------
  MAC_projection                 8         0.03450402419       2.109610772e-14
  velocity_solve                 1       1.086321149e-07       4.728128999e-11
  Nodal_projection               7         0.05749516303       1.202491069e-13

WallClockTime: 58 Pre: 0.00307 Solve: 1.185 Post: 1.16e-05 Total: 1.188
Solve time per cell: 2.173e-05

==============================================================================
Step: 59 dt: 0.1 Time: 5.8 to 5.9
CFL: 0.211754 (conv: 0.203203 diff: 0 src: 0.0425506 )

Godunov:
  System                     Iters      Initial residual        Final residual
  ----------------------------------------------------------------------------
  MAC_projection                 8         0.03427149778       2.051756388e-14
  velocity_solve                 1       1.082740422e-07       4.712852331e-11
  Nodal_projection               7         0.05749628288       1.204568536e-13

WallClockTime: 59 Pre: 0.00309 Solve: 1.19 Post: 9.49e-06 Total: 1.193
Solve time per cell: 2.181e-05

==============================================================================
Step: 60 dt: 0.1 Time: 5.9 to 6
CFL: 0.211939 (conv: 0.203408 diff: 0 src: 0.0425216 )

Godunov:
  System                     Iters      Initial residual        Final residual
  ----------------------------------------------------------------------------
  MAC_projection                 8         0.03355894646       1.970270464e-14
  velocity_solve                 1       1.079090559e-07       4.697398026e-11
  Nodal_projection               7         0.05749767577       1.206713054e-13

WallClockTime: 60 Pre: 0.00309 Solve: 1.182 Post: 1.07e-05 Total: 1.185
Solve time per cell: 2.168e-05

==============================================================================
Step: 61 dt: 0.1 Time: 6 to 6.1
CFL: 0.212106 (conv: 0.203593 diff: 0 src: 0.0424924 )

Godunov:
  System                     Iters      Initial residual        Final residual
  ----------------------------------------------------------------------------
  MAC_projection                 8          0.0340237483       2.089794266e-14
  velocity_solve                 1       1.075449081e-07       4.682121357e-11
  Nodal_projection               7         0.05749895036       1.208925707e-13

WallClockTime: 61 Pre: 0.00634 Solve: 1.212 Post: 8.48e-06 Total: 1.218
Solve time per cell: 2.221e-05

==============================================================================
Step: 62 dt: 0.1 Time: 6.1 to 6.2
CFL: 0.212253 (conv: 0.203758 diff: 0 src: 0.0424631 )

Godunov:
  System                     Iters      Initial residual        Final residual
  ----------------------------------------------------------------------------
  MAC_projection                 8         0.03440356179       2.008407275e-14
  velocity_solve                 1       1.071888001e-07       4.667022324e-11
  Nodal_projection               7         0.05750068656         1.2112088e-13

WallClockTime: 62 Pre: 0.00308 Solve: 1.198 Post: 8.77e-06 Total: 1.201
Solve time per cell: 2.196e-05

==============================================================================
Step: 63 dt: 0.1 Time: 6.2 to 6.3
CFL: 0.212383 (conv: 0.203905 diff: 0 src: 0.042434 )

Godunov:
  System                     Iters      Initial residual        Final residual
  ----------------------------------------------------------------------------
  MAC_projection                 8         0.03449664927        2.05790246e-14
  velocity_solve                 1       1.068487396e-07       4.652456198e-11
  Nodal_projection               7         0.05750165208       1.213563822e-13

WallClockTime: 63 Pre: 0.00305 Solve: 1.215 Post: 9.17e-06 Total: 1.218
Solve time per cell: 2.227e-05

==============================================================================
Step: 64 dt: 0.1 Time: 6.3 to 6.4
CFL: 0.212528 (conv: 0.204067 diff: 0 src: 0.0424047 )

Godunov:
  System                     Iters      Initial residual        Final residual
  ----------------------------------------------------------------------------
  MAC_projection                 8         0.03425143144       2.029350673e-14
  velocity_solve                 1       1.065314112e-07       4.639311157e-11
  Nodal_projection               7          0.0575026603       1.215985354e-13

WallClockTime: 64 Pre: 0.00333 Solve: 1.188 Post: 8.71e-06 Total: 1.192
Solve time per cell: 2.179e-05

==============================================================================
Step: 65 dt: 0.1 Time: 6.4 to 6.5
CFL: 0.212742 (conv: 0.204301 diff: 0 src: 0.0423755 )

Godunov:
  System                     Iters      Initial residual        Final residual
  ----------------------------------------------------------------------------
  MAC_projection                 8         0.03436209523       2.163387199e-14
  velocity_solve                 1       1.062437107e-07       4.627409567e-11
  Nodal_projection               7          0.0575031361       1.218476715e-13

WallClockTime: 65 Pre: 0.00305 Solve: 1.183 Post: 8.96e-06 Total: 1.186
Solve time per cell: 2.168e-05

==============================================================================
Step: 66 dt: 0.1 Time: 6.5 to 6.6
CFL: 0.212935 (conv: 0.204514 diff: 0 src: 0.0423459 )

Godunov:
  System                     Iters      Initial residual        Final residual
  ----------------------------------------------------------------------------
  MAC_projection                 8         0.03459876037       2.193364034e-14
  velocity_solve                 1       1.059912549e-07       4.617639604e-11
  Nodal_projection               7         0.05750372416       1.221039972e-13

WallClockTime: 66 Pre: 0.00306 Solve: 1.187 Post: 1.1e-05 Total: 1.19
Solve time per cell: 2.176e-05

==============================================================================
Step: 67 dt: 0.1 Time: 6.6 to 6.7
CFL: 0.213109 (conv: 0.204706 diff: 0 src: 0.0423182 )

Godunov:
  System                     Iters      Initial residual        Final residual
  ----------------------------------------------------------------------------
  MAC_projection                 8         0.03407706452       2.203108301e-14
  velocity_solve                 1       1.057790069e-07       4.609468363e-11
  Nodal_projection               7          0.0575039783       1.223675736e-13

WallClockTime: 67 Pre: 0.00309 Solve: 1.184 Post: 9.26e-06 Total: 1.187
Solve time per cell: 2.17e-05

==============================================================================
Step: 68 dt: 0.1 Time: 6.7 to 6.8
CFL: 0.213265 (conv: 0.204879 diff: 0 src: 0.042291 )

Godunov:
  System                     Iters      Initial residual        Final residual
  ----------------------------------------------------------------------------
  MAC_projection                 8          0.0330553764       2.246611913e-14
  velocity_solve                 1       1.056107326e-07       4.603428749e-11
  Nodal_projection               7         0.05750432235       1.226384581e-13

WallClockTime: 68 Pre: 0.00308 Solve: 1.199 Post: 9.47e-06 Total: 1.202
Solve time per cell: 2.198e-05

==============================================================================
Step: 69 dt: 0.1 Time: 6.8 to 6.9
CFL: 0.213403 (conv: 0.205033 diff: 0 src: 0.0422643 )

Godunov:
  System                     Iters      Initial residual        Final residual
  ----------------------------------------------------------------------------
  MAC_projection                 8         0.03271315942       2.276355984e-14
  velocity_solve                 1       1.054890575e-07       4.600053671e-11
  Nodal_projection               7         0.05750438156       1.229163086e-13

WallClockTime: 69 Pre: 0.00308 Solve: 1.213 Post: 1.05e-05 Total: 1.216
Solve time per cell: 2.223e-05

==============================================================================
Step: 70 dt: 0.1 Time: 6.9 to 7
CFL: 0.213524 (conv: 0.205169 diff: 0 src: 0.0422376 )

Godunov:
  System                     Iters      Initial residual        Final residual
  ----------------------------------------------------------------------------
  MAC_projection                 8         0.03273372351       2.270725925e-14
  velocity_solve                 1       1.054153245e-07       4.599165493e-11
  Nodal_projection               7         0.05750420163       1.232015148e-13

WallClockTime: 70 Pre: 0.00309 Solve: 1.253 Post: 9.3e-06 Total: 1.256
Solve time per cell: 2.297e-05

==============================================================================
Step: 71 dt: 0.1 Time: 7 to 7.1
CFL: 0.213629 (conv: 0.205288 diff: 0 src: 0.0422112 )

Godunov:
  System                     Iters      Initial residual        Final residual
  ----------------------------------------------------------------------------
  MAC_projection                 8         0.03278768991       2.223259554e-14
  velocity_solve                 1       1.053893648e-07       4.600408943e-11
  Nodal_projection               7         0.05750283208       1.234943544e-13

WallClockTime: 71 Pre: 0.00643 Solve: 1.188 Post: 8.86e-06 Total: 1.195
Solve time per cell: 2.179e-05

==============================================================================
Step: 72 dt: 0.1 Time: 7.1 to 7.2
CFL: 0.213718 (conv: 0.205391 diff: 0 src: 0.0421853 )

Godunov:
  System                     Iters      Initial residual        Final residual
  ----------------------------------------------------------------------------
  MAC_projection                 8         0.03267012119       2.249377984e-14
  velocity_solve                 1       1.054085814e-07       4.603961656e-11
  Nodal_projection               7         0.05750319236       1.237945971e-13

WallClockTime: 72 Pre: 0.00306 Solve: 1.186 Post: 8.78e-06 Total: 1.189
Solve time per cell: 2.174e-05

==============================================================================
Step: 73 dt: 0.1 Time: 7.2 to 7.3
CFL: 0.213794 (conv: 0.20548 diff: 0 src: 0.0421596 )

Godunov:
  System                     Iters      Initial residual        Final residual
  ----------------------------------------------------------------------------
  MAC_projection                 8         0.03265504895       2.186011788e-14
  velocity_solve                 1       1.054659666e-07       4.609468363e-11
  Nodal_projection               7         0.05750439626       1.241016838e-13

WallClockTime: 73 Pre: 0.00308 Solve: 1.209 Post: 9.04e-06 Total: 1.212
Solve time per cell: 2.216e-05

==============================================================================
Step: 74 dt: 0.1 Time: 7.3 to 7.4
CFL: 0.213856 (conv: 0.205554 diff: 0 src: 0.0421343 )

Godunov:
  System                     Iters      Initial residual        Final residual
  ----------------------------------------------------------------------------
  MAC_projection                 8         0.03311208037       2.124239369e-14
  velocity_solve                 1       1.055498746e-07        4.61657379e-11
  Nodal_projection               7         0.05750554485       1.244161803e-13

WallClockTime: 74 Pre: 0.0031 Solve: 1.188 Post: 9.46e-06 Total: 1.191
Solve time per cell: 2.178e-05

==============================================================================
Step: 75 dt: 0.1 Time: 7.4 to 7.5
CFL: 0.213915 (conv: 0.205615 diff: 0 src: 0.0421353 )

Godunov:
  System                     Iters      Initial residual        Final residual
  ----------------------------------------------------------------------------
  MAC_projection                 8         0.03282667388       2.121542417e-14
  velocity_solve                 1       1.056437053e-07       4.623679217e-11
  Nodal_projection               7          0.0575065188       1.247379851e-13

WallClockTime: 75 Pre: 0.00308 Solve: 1.186 Post: 9.66e-06 Total: 1.189
Solve time per cell: 2.175e-05

==============================================================================
Step: 76 dt: 0.1 Time: 7.5 to 7.6
CFL: 0.213972 (conv: 0.205664 diff: 0 src: 0.042164 )

Godunov:
  System                     Iters      Initial residual        Final residual
  ----------------------------------------------------------------------------
  MAC_projection                 8         0.03288885686       2.130012746e-14
  velocity_solve                 1       1.057285353e-07       4.630429373e-11
  Nodal_projection               7         0.05750723346       1.250676673e-13

WallClockTime: 76 Pre: 0.00307 Solve: 1.21 Post: 9.15e-06 Total: 1.213
Solve time per cell: 2.218e-05

==============================================================================
Step: 77 dt: 0.1 Time: 7.6 to 7.7
CFL: 0.214018 (conv: 0.205701 diff: 0 src: 0.042191 )

Godunov:
  System                     Iters      Initial residual        Final residual
  ----------------------------------------------------------------------------
  MAC_projection                 8         0.03258779852       2.143451432e-14
  velocity_solve                 1       1.057863006e-07       4.635936079e-11
  Nodal_projection               7         0.05751080876       1.254045086e-13

WallClockTime: 77 Pre: 0.00306 Solve: 1.183 Post: 1.12e-05 Total: 1.186
Solve time per cell: 2.169e-05

==============================================================================
Step: 78 dt: 0.1 Time: 7.7 to 7.8
CFL: 0.214129 (conv: 0.205806 diff: 0 src: 0.0422155 )

Godunov:
  System                     Iters      Initial residual        Final residual
  ----------------------------------------------------------------------------
  MAC_projection                 8         0.03256980609        2.18693336e-14
  velocity_solve                 1       1.058025241e-07       4.639311157e-11
  Nodal_projection               7         0.05751166112       1.257485835e-13

WallClockTime: 78 Pre: 0.00308 Solve: 1.185 Post: 9.25e-06 Total: 1.188
Solve time per cell: 2.173e-05

==============================================================================
Step: 79 dt: 0.1 Time: 7.8 to 7.9
CFL: 0.214227 (conv: 0.2059 diff: 0 src: 0.0422375 )

Godunov:
  System                     Iters      Initial residual        Final residual
  ----------------------------------------------------------------------------
  MAC_projection                 8         0.03255145724       2.253020904e-14
  velocity_solve                 1       1.057668051e-07         4.6400217e-11
  Nodal_projection               7         0.05751188817       1.260999057e-13

WallClockTime: 79 Pre: 0.00312 Solve: 1.192 Post: 9.58e-06 Total: 1.195
Solve time per cell: 2.185e-05

==============================================================================
Step: 80 dt: 0.1 Time: 7.9 to 8
CFL: 0.214311 (conv: 0.205979 diff: 0 src: 0.0422568 )

Godunov:
  System                     Iters      Initial residual        Final residual
  ----------------------------------------------------------------------------
  MAC_projection                 8         0.03253275415       2.201461669e-14
  velocity_solve                 1        1.05672493e-07       4.637534801e-11
  Nodal_projection               7         0.05751193335       1.264585394e-13

WallClockTime: 80 Pre: 0.00309 Solve: 1.184 Post: 9.36e-06 Total: 1.187
Solve time per cell: 2.171e-05

==============================================================================
Step: 81 dt: 0.1 Time: 8 to 8.1
CFL: 0.214397 (conv: 0.206062 diff: 0 src: 0.0422737 )

Godunov:
  System                     Iters      Initial residual        Final residual
  ----------------------------------------------------------------------------
  MAC_projection                 8         0.03251382504       2.277681082e-14
  velocity_solve                 1       1.055170262e-07       4.631850459e-11
  Nodal_projection               7         0.05751434875       1.268245322e-13

WallClockTime: 81 Pre: 0.00647 Solve: 1.184 Post: 9.83e-06 Total: 1.19
Solve time per cell: 2.171e-05

==============================================================================
Step: 82 dt: 0.1 Time: 8.1 to 8.2
CFL: 0.214469 (conv: 0.206131 diff: 0 src: 0.0422882 )

Godunov:
  System                     Iters      Initial residual        Final residual
  ----------------------------------------------------------------------------
  MAC_projection                 8         0.03249493937       2.272989197e-14
  velocity_solve                 1       1.053008614e-07       4.623679217e-11
  Nodal_projection               7         0.05751436952       1.271977044e-13

WallClockTime: 82 Pre: 0.00307 Solve: 1.209 Post: 1.07e-05 Total: 1.212
Solve time per cell: 2.217e-05

==============================================================================
Step: 83 dt: 0.1 Time: 8.2 to 8.3
CFL: 0.214529 (conv: 0.206188 diff: 0 src: 0.0423006 )

Godunov:
  System                     Iters      Initial residual        Final residual
  ----------------------------------------------------------------------------
  MAC_projection                 8         0.03247779979       2.262478026e-14
  velocity_solve                 1       1.050266469e-07       4.612132898e-11
  Nodal_projection               7         0.05751413904       1.275778935e-13

WallClockTime: 83 Pre: 0.0033 Solve: 1.184 Post: 9.01e-06 Total: 1.187
Solve time per cell: 2.17e-05

==============================================================================
Step: 84 dt: 0.1 Time: 8.3 to 8.4
CFL: 0.214576 (conv: 0.206233 diff: 0 src: 0.0423112 )

Godunov:
  System                     Iters      Initial residual        Final residual
  ----------------------------------------------------------------------------
  MAC_projection                 8         0.03246087861       2.233514074e-14
  velocity_solve                 1       1.046992857e-07       4.597922043e-11
  Nodal_projection               7         0.05751378563       1.279653128e-13

WallClockTime: 84 Pre: 0.0031 Solve: 1.212 Post: 1.02e-05 Total: 1.215
Solve time per cell: 2.222e-05

==============================================================================
Step: 85 dt: 0.1 Time: 8.4 to 8.5
CFL: 0.214612 (conv: 0.206266 diff: 0 src: 0.0423206 )

Godunov:
  System                     Iters      Initial residual        Final residual
  ----------------------------------------------------------------------------
  MAC_projection                 8         0.03244431935       2.226731373e-14
  velocity_solve                 1         1.0432551e-07       4.581046653e-11
  Nodal_projection               7         0.05751314217       1.283595321e-13

WallClockTime: 85 Pre: 0.00309 Solve: 1.184 Post: 1.08e-05 Total: 1.187
Solve time per cell: 2.171e-05

==============================================================================
Step: 86 dt: 0.1 Time: 8.5 to 8.6
CFL: 0.214637 (conv: 0.206289 diff: 0 src: 0.0423289 )

Godunov:
  System                     Iters      Initial residual        Final residual
  ----------------------------------------------------------------------------
  MAC_projection                 8         0.03242829093       2.214454689e-14
  velocity_solve                 1       1.039133188e-07       4.562572542e-11
  Nodal_projection               7         0.05751263303       1.287611815e-13

WallClockTime: 86 Pre: 0.00312 Solve: 1.188 Post: 1.18e-05 Total: 1.191
Solve time per cell: 2.178e-05

==============================================================================
Step: 87 dt: 0.1 Time: 8.6 to 8.7
CFL: 0.214653 (conv: 0.206302 diff: 0 src: 0.0423363 )

Godunov:
  System                     Iters      Initial residual        Final residual
  ----------------------------------------------------------------------------
  MAC_projection                 8         0.03241288371       2.175143678e-14
  velocity_solve                 1       1.034717112e-07       4.542322074e-11
  Nodal_projection               7         0.05751133795       1.291693464e-13

WallClockTime: 87 Pre: 0.00309 Solve: 1.184 Post: 8.94e-06 Total: 1.187
Solve time per cell: 2.17e-05

==============================================================================
Step: 88 dt: 0.1 Time: 8.7 to 8.8
CFL: 0.214659 (conv: 0.206306 diff: 0 src: 0.0423433 )

Godunov:
  System                     Iters      Initial residual        Final residual
  ----------------------------------------------------------------------------
  MAC_projection                 8         0.03239833081       2.228696828e-14
  velocity_solve                 1       1.030107732e-07       4.521361063e-11
  Nodal_projection               7          0.0575103603        1.29584833e-13

WallClockTime: 88 Pre: 0.00309 Solve: 1.184 Post: 8.7e-06 Total: 1.187
Solve time per cell: 2.17e-05

==============================================================================
Step: 89 dt: 0.1 Time: 8.8 to 8.9
CFL: 0.214656 (conv: 0.206301 diff: 0 src: 0.0423498 )

Godunov:
  System                     Iters      Initial residual        Final residual
  ----------------------------------------------------------------------------
  MAC_projection                 8         0.03238462565       2.309995728e-14
  velocity_solve                 1       1.025401701e-07        4.49968951e-11
  Nodal_projection               7         0.05750957403       1.300074347e-13

WallClockTime: 89 Pre: 0.00311 Solve: 1.185 Post: 8.87e-06 Total: 1.189
Solve time per cell: 2.173e-05

==============================================================================
Step: 90 dt: 0.1 Time: 8.9 to 9
CFL: 0.214646 (conv: 0.206288 diff: 0 src: 0.0423563 )

Godunov:
  System                     Iters      Initial residual        Final residual
  ----------------------------------------------------------------------------
  MAC_projection                 8         0.03237179913       2.334319803e-14
  velocity_solve                 1       1.020688138e-07       4.478195592e-11
  Nodal_projection               7         0.05750881176       1.304370566e-13

WallClockTime: 90 Pre: 0.00308 Solve: 1.198 Post: 1e-05 Total: 1.201
Solve time per cell: 2.196e-05

==============================================================================
Step: 91 dt: 0.1 Time: 9 to 9.1
CFL: 0.214643 (conv: 0.206282 diff: 0 src: 0.0423625 )

Godunov:
  System                     Iters      Initial residual        Final residual
  ----------------------------------------------------------------------------
  MAC_projection                 8         0.03235990928       2.339561921e-14
  velocity_solve                 1       1.016050462e-07        4.45687931e-11
  Nodal_projection               7         0.05750798958       1.308732446e-13

WallClockTime: 91 Pre: 0.0062 Solve: 1.189 Post: 9.72e-06 Total: 1.195
Solve time per cell: 2.18e-05

==============================================================================
Step: 92 dt: 0.1 Time: 9.1 to 9.2
CFL: 0.214671 (conv: 0.206309 diff: 0 src: 0.0423693 )

Godunov:
  System                     Iters      Initial residual        Final residual
  ----------------------------------------------------------------------------
  MAC_projection                 8         0.03234885657       2.324572826e-14
  velocity_solve                 1       1.011555071e-07       4.436273571e-11
  Nodal_projection               7         0.05750735634       1.313162903e-13

WallClockTime: 92 Pre: 0.00308 Solve: 1.217 Post: 9.53e-06 Total: 1.22
Solve time per cell: 2.232e-05

==============================================================================
Step: 93 dt: 0.1 Time: 9.2 to 9.3
CFL: 0.21469 (conv: 0.206325 diff: 0 src: 0.0423764 )

Godunov:
  System                     Iters      Initial residual        Final residual
  ----------------------------------------------------------------------------
  MAC_projection                 8          0.0323386614       2.319013579e-14
  velocity_solve                 1       1.007252521e-07        4.41655601e-11
  Nodal_projection               7         0.05750678407       1.317659293e-13

WallClockTime: 93 Pre: 0.00309 Solve: 1.201 Post: 9.91e-06 Total: 1.204
Solve time per cell: 2.202e-05

==============================================================================
Step: 94 dt: 0.1 Time: 9.3 to 9.4
CFL: 0.214699 (conv: 0.206332 diff: 0 src: 0.042384 )

Godunov:
  System                     Iters      Initial residual        Final residual
  ----------------------------------------------------------------------------
  MAC_projection                 8         0.03232920256       2.351661617e-14
  velocity_solve                 1       1.003180863e-07       4.398081899e-11
  Nodal_projection               7         0.05750609335       1.322224868e-13

WallClockTime: 94 Pre: 0.00319 Solve: 1.225 Post: 1.09e-05 Total: 1.228
Solve time per cell: 2.245e-05

==============================================================================
Step: 95 dt: 0.1 Time: 9.4 to 9.5
CFL: 0.2147 (conv: 0.20633 diff: 0 src: 0.0423919 )

Godunov:
  System                     Iters      Initial residual        Final residual
  ----------------------------------------------------------------------------
  MAC_projection                 8         0.03232042703       2.352789187e-14
  velocity_solve                 1       9.993572903e-08       4.380851237e-11
  Nodal_projection               7         0.05750537462       1.326856309e-13

WallClockTime: 95 Pre: 0.00309 Solve: 1.329 Post: 9.37e-06 Total: 1.332
Solve time per cell: 2.436e-05

==============================================================================
Step: 96 dt: 0.1 Time: 9.5 to 9.6
CFL: 0.214693 (conv: 0.20632 diff: 0 src: 0.0424003 )

Godunov:
  System                     Iters      Initial residual        Final residual
  ----------------------------------------------------------------------------
  MAC_projection                 8         0.03231223098       2.319672232e-14
  velocity_solve                 1       9.957872749e-08        4.36468639e-11
  Nodal_projection               7         0.05750478595        1.33155165e-13

WallClockTime: 96 Pre: 0.00308 Solve: 1.188 Post: 9.01e-06 Total: 1.191
Solve time per cell: 2.178e-05

==============================================================================
Step: 97 dt: 0.1 Time: 9.6 to 9.7
CFL: 0.214679 (conv: 0.206301 diff: 0 src: 0.0424089 )

Godunov:
  System                     Iters      Initial residual        Final residual
  ----------------------------------------------------------------------------
  MAC_projection                 8         0.03230452698       2.400987395e-14
  velocity_solve                 1       9.924591282e-08         4.3502979e-11
  Nodal_projection               7         0.05750401595        1.33631394e-13

WallClockTime: 97 Pre: 0.0032 Solve: 1.185 Post: 9.44e-06 Total: 1.189
Solve time per cell: 2.173e-05

==============================================================================
Step: 98 dt: 0.1 Time: 9.7 to 9.8
CFL: 0.214658 (conv: 0.206276 diff: 0 src: 0.0424181 )

Godunov:
  System                     Iters      Initial residual        Final residual
  ----------------------------------------------------------------------------
  MAC_projection                 8         0.03229724829       2.394113553e-14
  velocity_solve                 1       9.893523689e-08       4.344080651e-11
  Nodal_projection               7         0.05750340206       1.341138504e-13

WallClockTime: 98 Pre: 0.00307 Solve: 1.217 Post: 9.37e-06 Total: 1.22
Solve time per cell: 2.231e-05

==============================================================================
Step: 99 dt: 0.1 Time: 9.8 to 9.9
CFL: 0.21463 (conv: 0.206243 diff: 0 src: 0.0424275 )

Godunov:
  System                     Iters      Initial residual        Final residual
  ----------------------------------------------------------------------------
  MAC_projection                 8         0.03229029908       2.400064807e-14
  velocity_solve                 1       9.864369588e-08       4.337685766e-11
  Nodal_projection               7          0.0575028832       1.346026155e-13

WallClockTime: 99 Pre: 0.0031 Solve: 1.189 Post: 9.6e-06 Total: 1.192
Solve time per cell: 2.18e-05

==============================================================================
Step: 100 dt: 0.1 Time: 9.9 to 10
CFL: 0.214596 (conv: 0.206204 diff: 0 src: 0.042437 )

Godunov:
  System                     Iters      Initial residual        Final residual
  ----------------------------------------------------------------------------
  MAC_projection                 8         0.03228366717       2.356943799e-14
  velocity_solve                 1       9.836781345e-08       4.330580339e-11
  Nodal_projection               7          0.0575022777       1.350973031e-13

WallClockTime: 100 Pre: 0.00307 Solve: 1.187 Post: 0.042 Total: 1.232
Solve time per cell: 2.175e-05

==============================================================================
Step: 101 dt: 0.1 Time: 10 to 10.1
CFL: 0.214556 (conv: 0.206159 diff: 0 src: 0.0424464 )

Godunov:
  System                     Iters      Initial residual        Final residual
  ----------------------------------------------------------------------------
  MAC_projection                 8         0.03227724763       2.353222868e-14
  velocity_solve                 1       9.810413815e-08       4.322764369e-11
  Nodal_projection               7         0.05750075177       1.355984213e-13

WallClockTime: 101 Pre: 0.00349 Solve: 1.248 Post: 1.24e-05 Total: 1.252
Solve time per cell: 2.289e-05

==============================================================================
Step: 102 dt: 0.1 Time: 10.1 to 10.2
CFL: 0.214511 (conv: 0.206108 diff: 0 src: 0.0424559 )

Godunov:
  System                     Iters      Initial residual        Final residual
  ----------------------------------------------------------------------------
  MAC_projection                 8         0.03227101298        2.28228352e-14
  velocity_solve                 1       9.784905153e-08       4.314948399e-11
  Nodal_projection               7         0.05750170195       1.361055501e-13

WallClockTime: 102 Pre: 0.00416 Solve: 1.193 Post: 1.06e-05 Total: 1.197
Solve time per cell: 2.187e-05

==============================================================================
Step: 103 dt: 0.1 Time: 10.2 to 10.3
CFL: 0.214461 (conv: 0.206052 diff: 0 src: 0.0424652 )

Godunov:
  System                     Iters      Initial residual        Final residual
  ----------------------------------------------------------------------------
  MAC_projection                 8         0.03226493175       2.268031683e-14
  velocity_solve                 1       9.759924779e-08         4.3074877e-11
  Nodal_projection               7         0.05750211494       1.366182897e-13

WallClockTime: 103 Pre: 0.00335 Solve: 1.19 Post: 8.37e-06 Total: 1.193
Solve time per cell: 2.182e-05

==============================================================================
Step: 104 dt: 0.1 Time: 10.3 to 10.4
CFL: 0.214406 (conv: 0.205992 diff: 0 src: 0.0424744 )

Godunov:
  System                     Iters      Initial residual        Final residual
  ----------------------------------------------------------------------------
  MAC_projection                 8         0.03225899379       2.212141061e-14
  velocity_solve                 1       9.735190254e-08       4.299494094e-11
  Nodal_projection               7         0.05750232081       1.371367009e-13

WallClockTime: 104 Pre: 0.00334 Solve: 1.189 Post: 9.04e-06 Total: 1.193
Solve time per cell: 2.18e-05

==============================================================================
Step: 105 dt: 0.1 Time: 10.4 to 10.5
CFL: 0.214348 (conv: 0.205927 diff: 0 src: 0.0424835 )

Godunov:
  System                     Iters      Initial residual        Final residual
  ----------------------------------------------------------------------------
  MAC_projection                 8         0.03225317077       2.319184341e-14
  velocity_solve                 1       9.710474025e-08       4.291500488e-11
  Nodal_projection               7         0.05750240607       1.376608856e-13

WallClockTime: 105 Pre: 0.00307 Solve: 1.187 Post: 9.65e-06 Total: 1.19
Solve time per cell: 2.176e-05

==============================================================================
Step: 106 dt: 0.1 Time: 10.5 to 10.6
CFL: 0.214301 (conv: 0.205875 diff: 0 src: 0.0424924 )

Godunov:
  System                     Iters      Initial residual        Final residual
  ----------------------------------------------------------------------------
  MAC_projection                 8         0.03224752318       2.375237593e-14
  velocity_solve                 1       9.685603963e-08       4.283684518e-11
  Nodal_projection               7         0.05750224357       1.381907216e-13

WallClockTime: 106 Pre: 0.00313 Solve: 1.191 Post: 9.75e-06 Total: 1.194
Solve time per cell: 2.183e-05

==============================================================================
Step: 107 dt: 0.1 Time: 10.6 to 10.7
CFL: 0.214262 (conv: 0.205832 diff: 0 src: 0.0425012 )

Godunov:
  System                     Iters      Initial residual        Final residual
  ----------------------------------------------------------------------------
  MAC_projection                 8         0.03224209342       2.381303705e-14
  velocity_solve                 1       9.660450573e-08       4.276579091e-11
  Nodal_projection               7         0.05750163919       1.387264259e-13

WallClockTime: 107 Pre: 0.00307 Solve: 1.189 Post: 8.51e-06 Total: 1.192
Solve time per cell: 2.18e-05

==============================================================================
Step: 108 dt: 0.1 Time: 10.7 to 10.8
CFL: 0.214218 (conv: 0.205783 diff: 0 src: 0.0425098 )

Godunov:
  System                     Iters      Initial residual        Final residual
  ----------------------------------------------------------------------------
  MAC_projection                 8         0.03223692991       2.484623259e-14
  velocity_solve                 1        9.63494049e-08       4.269296028e-11
  Nodal_projection               7         0.05750131504       1.392674021e-13

WallClockTime: 108 Pre: 0.00305 Solve: 1.193 Post: 9.59e-06 Total: 1.196
Solve time per cell: 2.188e-05

==============================================================================
Step: 109 dt: 0.1 Time: 10.8 to 10.9
CFL: 0.214169 (conv: 0.205728 diff: 0 src: 0.0425183 )

Godunov:
  System                     Iters      Initial residual        Final residual
  ----------------------------------------------------------------------------
  MAC_projection                 8         0.03223221675       2.435414202e-14
  velocity_solve                 1       9.609025931e-08       4.263078779e-11
  Nodal_projection               7          0.0575008526       1.398133928e-13

WallClockTime: 109 Pre: 0.00305 Solve: 1.19 Post: 1.19e-05 Total: 1.193
Solve time per cell: 2.182e-05

==============================================================================
Step: 110 dt: 0.1 Time: 10.9 to 11
CFL: 0.214115 (conv: 0.205669 diff: 0 src: 0.0425264 )

Godunov:
  System                     Iters      Initial residual        Final residual
  ----------------------------------------------------------------------------
  MAC_projection                 8          0.0322278574       2.321228062e-14
  velocity_solve                 1       9.582724481e-08       4.256506259e-11
  Nodal_projection               7         0.05750002998        1.40364696e-13

WallClockTime: 110 Pre: 0.00309 Solve: 1.186 Post: 1.12e-05 Total: 1.189
Solve time per cell: 2.175e-05

==============================================================================
Step: 111 dt: 0.1 Time: 11 to 11.1
CFL: 0.214057 (conv: 0.205605 diff: 0 src: 0.0425345 )

Godunov:
  System                     Iters      Initial residual        Final residual
  ----------------------------------------------------------------------------
  MAC_projection                 8         0.03222383865       2.392996825e-14
  velocity_solve                 1       9.556115721e-08        4.25028901e-11
  Nodal_projection               7         0.05749898225       1.409211493e-13

WallClockTime: 111 Pre: 0.0064 Solve: 1.187 Post: 1.05e-05 Total: 1.193
Solve time per cell: 2.176e-05

==============================================================================
Step: 112 dt: 0.1 Time: 11.1 to 11.2
CFL: 0.213995 (conv: 0.205537 diff: 0 src: 0.0425425 )

Godunov:
  System                     Iters      Initial residual        Final residual
  ----------------------------------------------------------------------------
  MAC_projection                 8         0.03222021049       2.449754809e-14
  velocity_solve                 1       9.529250988e-08       4.244427032e-11
[...]
amr-wind::Field::fillpatch                                           18014      73.48      84.67      110.5   1.34%
MLMG::mgVcycle_up::0                                                122436      93.79      107.8      110.2   1.34%
MLMG::prepareForSolve()                                              18010      31.63      82.91      99.49   1.21%
MLABecLaplacian::Fapply()                                           194774      50.03      81.79      95.04   1.15%
amrex::Copy()                                                      1278015      49.39      79.53      94.35   1.15%
MLCellLinOp::updateCorBC()                                          116066      53.36      72.28      93.96   1.14%
MLPoisson::Fsmooth()                                               2649304      59.33      78.24       88.8   1.08%
FabArray::setVal()                                                 2893950      46.73      71.63      83.22   1.01%
FillPatchTwoLevels                                                   36028      57.86      70.19      78.34   0.95%
MLMG::ResNormInf()                                                  238622      18.41      49.29      75.58   0.92%
amrex::Add()                                                       1326384      28.66      54.89       70.9   0.86%
MLMG::mgVcycle_down::1                                              122436      48.41      53.12      65.92   0.80%
MLMG::mgVcycle_up::3                                                122436      1.217      3.771      63.59   0.77%
FabArray::Xpay()                                                   1537698      27.07      44.96      52.31   0.63%
MLMG:computeResOfCorrection()                                       612180      25.85      35.93      50.98   0.62%
amr-wind::setup_operator                                             18009      25.14      39.22      45.33   0.55%
MLMG::mgVcycle_down::2                                              122436      1.986      8.329      40.66   0.49%
FabArray::norminf()                                                 165591      11.15      24.52       39.7   0.48%
MLMG::mgVcycle_up::4                                                122436      1.468      1.662       39.4   0.48%
MLABecLaplacian::FFlux()                                            743286          0      13.72      38.29   0.46%
MLNodeLaplacian::restriction()                                      322015      12.43      18.59      35.34   0.43%
OverrideSync_nowait()                                              1996493      14.49      22.39       33.1   0.40%
MLMG::actualBottomSolve()                                           122436    0.05508     0.1544      31.44   0.38%
MLMG::MLResNormInf()                                                 49088       9.78      18.41      30.78   0.37%
MLCGSolver::bicgstab                                                   340          0     0.0854      30.74   0.37%
amr-wind::godunov::predict_godunov                                  181424      20.05      26.68      30.27   0.37%
amrex::average_down_w_geom                                           36024      5.743         19      29.64   0.36%
NodalProjector::computeRHS                                            6004      16.01      19.35      29.39   0.36%
MLNodeLaplacian::compRHS()                                            6004         16      19.33      29.37   0.36%
average_down_faces                                                  378189      14.53      20.82      27.11   0.33%
amr-wind::Field::fillpatch array                                      6003      14.92      16.92      25.63   0.31%
MLMG::mgVcycle_down::3                                              122436      1.627      2.619      24.71   0.30%
MultiFab::Copy()                                                     72042      7.047      17.15      21.09   0.26%
MLPoisson::Fapply()                                                 601625      8.926      14.59      17.94   0.22%
amr-wind::incflo::pre_advance_stage1                                  6000      8.457      11.92      17.15   0.21%
amr-wind::incflo::ComputeDt                                           6001      8.454      11.92      17.15   0.21%
FabArrayBase::getCPC()                                             4544848      12.15       14.3      16.94   0.21%
amr-wind::ICNS-Godunov::compute_source_term                          12006      6.054      12.46      15.58   0.19%
FillPatchTwoLevels (Array<MF*>)                                      12006       13.2      14.02      14.58   0.18%
amr-wind::diffusion::average_velocity_eta_to_faces                   54027      8.544      12.28      14.47   0.18%
amr-wind::ICNS-Godunov::compute_predictor_rhs                         6003      7.024      11.94       13.5   0.16%
FabArray::norminf(mask)                                             134196      2.587      8.364      13.47   0.16%
FillPatchInterp(Fab)                                                 36028    0.02238      3.177      13.23   0.16%
amr-wind::Field::advance_states                                      12000      3.558      10.39      13.09   0.16%
CellConservativeLinear::interp()                                      8274          0      3.086      13.04   0.16%
amr-wind::actuator::Actuator::update_positions                        6001      10.57      10.74      10.85   0.13%
MLMG::mgVcycle_down::4                                              122436       1.49      1.628      10.28   0.12%
MLCGSolver::ParallelAllReduce                                        17488          0      0.023      8.282   0.10%
amr-wind::actuator::ActuatorContainer::sample_velocities              6001      6.554      7.746      8.243   0.10%
amr-wind::actuator::ActuatorContainer::populate_vel_buffer            6001      6.164      7.727       8.23   0.10%
ParticleContainer::RedistributeCPU()                                 12063      5.862      6.849      8.142   0.10%
MultiFab::Multiply()                                                114029      3.134      5.883       8.14   0.10%
FabArrayBase::getFB()                                              8511496      3.848      4.897       7.59   0.09%
FabArray::ParallelCopyToGhost()                                      36018     0.1462      3.482      7.257   0.09%
MLMG::getFluxes()                                                    12006       3.58      5.761      7.159   0.09%
ParticleContainer::RedistributeMPI()                                 12063      3.957      5.473        6.7   0.08%
MLCellLinOp::compFlux()                                              18009      3.322      5.239       6.56   0.08%
MLPoisson::FFlux()                                                 1450700     0.5769      2.643      6.423   0.08%
FabArray::Saxpy()                                                    64040      1.284      3.997      5.418   0.07%
amr-wind::incflo::post_advance_work                                   6000      2.366      2.393      4.804   0.06%
MLMG::MLRhsNormInf()                                                 18010      1.547      3.343      4.461   0.05%
MLNodeLaplacian::interpolation()                                    322015      1.667      2.845      4.279   0.05%
amr-wind::godunov::make_trans_velocities                            181424      2.802       3.74       4.27   0.05%
amr-wind::actuator::ActuatorContainer::update_positions               6001      2.509      2.963      4.173   0.05%
PhysBCFunct::()                                                     270160     0.2793     0.9693      4.011   0.05%
FabArray::mult()                                                    108054      1.175       2.66      3.967   0.05%
FabArrayBase::CPC::define()                                         264310      1.386      2.236      3.679   0.04%
amr-wind::Field::setVal 1                                            12006      2.256      3.026      3.597   0.04%
MultiFab::Add()                                                      18009      1.056      2.331      3.177   0.04%
amr-wind::Field::fillphysbc                                          18009     0.1639     0.6961      3.161   0.04%
MLCellLinOp::prepareForSolve()                                       18010      1.301      2.297      3.123   0.04%
MLNodeLinOp::buildMasks()                                             6004      1.726      2.217      2.893   0.04%
amr-wind::set_acoeffs                                                18009      1.516      2.164      2.797   0.03%
MLNodeLaplacian::define()                                             6004      1.351      1.908      2.611   0.03%
FabArrayBase::FB::FB()                                               60066    0.01755     0.2964      2.371   0.03%
amr-wind::Sampling::post_advance_work                                 6001       1.54      1.835      2.278   0.03%
amrex::Dot()                                                         13590          0   0.004989      1.796   0.02%
amr-wind::Sampling::update_container                                    62      1.047      1.393      1.607   0.02%
amr-wind::Sampling::update_sampling_locations                           61      1.012      1.357      1.571   0.02%
amr-wind::incflo::InitData()                                             1      1.526      1.526      1.532   0.02%
amr-wind::ICNS-Godunov::compute_mueff                                 6003     0.3717     0.9368        1.3   0.02%
FabArray::BuildMask()                                                48032     0.4708     0.6232      1.058   0.01%
MLLinOp::define()                                                     6007     0.5193     0.6539     0.9404   0.01%
MLLinOp::defineGrids()                                                6007     0.5073     0.6361     0.9152   0.01%
FabArray::LinComb()                                                   6795          0   0.002467     0.8883   0.01%
MLCellLinOp::setLevelBC()                                            54030     0.3805     0.5125     0.7701   0.01%
amr-wind::incflo::init_amr_wind_modules                                  1     0.7509     0.7511     0.7594   0.01%
amr-wind::incflo::prepare_for_time_integration                           1     0.7406     0.7482     0.7539   0.01%
FabArrayBase::TheFPinfo()                                            48034    0.07345     0.2578     0.7494   0.01%
amr-wind::FieldRepo::create_scratch_field                            42028     0.4133     0.5367     0.7222   0.01%
amr-wind::IOManager::write_plot_file                                     7     0.6168     0.6622     0.6744   0.01%
FaceDivFree::interp()                                                 4135          0     0.1641     0.6678   0.01%
amr-wind::actuator::Actuator::post_init_actions                          2    0.02099    0.06156     0.6642   0.01%
WriteMultiLevelPlotfile()                                                7     0.6032     0.6475     0.6597   0.01%
DistributionMapping::LeastUsedCPUs()                                     9   0.001219     0.1703     0.6425   0.01%
FPinfo::FPinfo()                                                         6  0.0008952       0.17     0.6422   0.01%
VisMF::Write(FabArray)                                                  21     0.5582     0.5955     0.6075   0.01%
amr-wind::incflo::InitialIterations()                                    1     0.6043     0.6056     0.6066   0.01%
amr-wind::SamplingContainer::populate_buffer                            61     0.2345     0.4376     0.5045   0.01%
RedistributeMPI_copy                                                   190          0   0.006496     0.4374   0.01%
amr-wind::actuator::ActuatorContainer::interpolate_velocities         6001   0.004623     0.0121     0.3845   0.00%
MLLinOp::makeAgglomeratedDMap                                         6006     0.1734     0.2006      0.372   0.00%
OwnerMask()                                                          12012    0.09835     0.2143     0.3219   0.00%
makeSFC                                                              24024      0.112      0.137     0.3042   0.00%
FabArray::setVal(val, thecmd, scomp, ncomp)                          96274     0.1045     0.1751     0.2869   0.00%
amr-wind::actuator::Actuator::compute_forces                          6001   0.004641     0.0213     0.2861   0.00%
MLNodeLaplacian::prepareForSolve()                                    6004    0.08867     0.1668     0.2754   0.00%
RedistributeMPI_locate                                                 190          0   0.006216     0.2347   0.00%
PCInterp::interp()                                                    4135          0    0.04953     0.2051   0.00%
MLNodeLaplacian::normalize()                                          3166          0  0.0005552     0.1999   0.00%
FabArray::setDomainBndry()                                          108064    0.08922     0.1234     0.1824   0.00%
amr-wind::FieldRepo::get_field                                      102078     0.1083     0.1499     0.1819   0.00%
DistributionMapping::Distribute()                                    24027    0.04607     0.0523     0.1737   0.00%
amr-wind::diffusion::fixup_eta_on_domain_faces                       54027    0.06071    0.09543     0.1354   0.00%
amr-wind::SamplingContainer::initialize                                 62  2.303e-05  0.0002907    0.09371   0.00%
MLLinOp::makeSubCommunicator()                                        6006    0.02346    0.04101     0.0811   0.00%
amr-wind::Field::set_inflow                                          18003    0.01943    0.03314    0.05411   0.00%
amr-wind::Sampling::initialize                                           1    0.03489    0.03577    0.04547   0.00%
amr-wind::setup_solver                                                6003    0.01255    0.02431    0.03537   0.00%
amr-wind::actuator::Actuator::update_velocities                       6001   0.005061   0.008238    0.03242   0.00%
amr-wind::incflo::InitialProjection()                                    1    0.02281    0.03112    0.03237   0.00%
MLABecLaplacian::normalize()                                            59          0  8.151e-05    0.02934   0.00%
amr-wind::FieldRepo::get_int_field                                    6003     0.0103    0.01815    0.02756   0.00%
amr-wind::incflo::init_mesh                                              1    0.02655    0.02688    0.02698   0.00%
FabArray::RecvLayoutMask()                                           12014    0.01119    0.01526    0.02633   0.00%
NodalProjector::computeSyncResidual                                   6004   0.009578    0.01419    0.02286   0.00%
AmrMesh::MakeNewGrids()                                                  3    0.01214    0.01321    0.01621   0.00%
amr-wind::incflo::MakeNewLevelFromScratch()                              3   0.008858    0.01187    0.01297   0.00%
amr-wind::ICNS-Godunov::initialize                                       1   0.009599    0.01124     0.0128   0.00%
MLTensorOp::define()                                                     2   0.009522    0.01115    0.01271   0.00%
MLABecLaplacian::define()                                                2   0.009431    0.01105     0.0126   0.00%
amr-wind::FieldRepo::make_new_level_from_scratch                         3   0.008485    0.01128    0.01242   0.00%
MLCellLinOp::defineAuxData()                                             3   0.008663    0.00906   0.009932   0.00%
amr-wind::SamplingContainer::interpolate                                61  6.585e-05   0.001134   0.009311   0.00%
BoxList::parallelComplementIn()                                          7   0.004985   0.006054   0.008985   0.00%
BoxList::pci                                                             3   0.004978   0.006045   0.008971   0.00%
amr-wind::SamplingContainer::sample_impl                                88          0  0.0009947   0.008769   0.00%
amr-wind::Field::copy_state                                              8   0.003281   0.006344   0.007758   0.00%
MLNodeLaplacian::averageDownCoeffs()                                  6004   0.002953   0.004733   0.007408   0.00%
MLCellLinOp::defineBC()                                                  3   0.003663   0.005155   0.006354   0.00%
amr-wind::incflo::regrid_and_update                                   6000   0.002473   0.003505   0.005619   0.00%
TagBoxArray::collate()                                                   4   0.001007   0.002665   0.004111   0.00%
MLPoisson::define()                                                      1   0.003301   0.003561   0.003849   0.00%
TagBoxArray::mapPRD                                                      4  0.0007596   0.001812   0.003411   0.00%
BndryData::define()                                                     15   0.001591   0.002085   0.002482   0.00%
MultiFab::Subtract()                                                     9  0.0007943   0.001838   0.002362   0.00%
NFI::ReadyToWrite:decider                                                0          0  8.367e-05   0.001704   0.00%
DistributionMapping::SFCProcessorMapDoIt()                               3  0.0004353  0.0007692  0.0008553   0.00%
amr-wind::incflo::ErrorEst()                                             4  0.0003228  0.0004822  0.0006807   0.00%
amr-wind::actuator::ActuatorContainer::initialize_container              1  0.0002765   0.000498  0.0006371   0.00%
amr-wind::IntField::setVal 1                                             2  0.0002141  0.0003512  0.0005894   0.00%
amr-wind::actuator::ActuatorContainer::compute_local_coordinates         1  0.0001274  0.0003323  0.0004203   0.00%
amr-wind::RefineCriteriaManager::initialize                              1  7.538e-05  8.505e-05  0.0004186   0.00%
amr-wind::SamplingContainer::setup                                      62  0.0001759  0.0002183   0.000324   0.00%
NFI::CleanUpMessages                                                    21  5.951e-05  7.747e-05  0.0001864   0.00%
MLPoisson::prepareForSolve()                                             1  3.605e-05  5.875e-05  0.0001098   0.00%
AmrMesh-cluster                                                          0          0  2.592e-07  9.332e-05   0.00%
BoxList::complementIn                                                    5  1.401e-05  2.389e-05  7.077e-05   0.00%
amr-wind::FieldRepo::declare_int_field                                   2  3.255e-05  4.231e-05  5.881e-05   0.00%
amr-wind::FieldRepo::declare_field                                      12  2.341e-05  2.615e-05  4.728e-05   0.00%
ClusterList::intersect()                                                 0          0  8.861e-08   3.19e-05   0.00%
ClusterList::new_chop()                                                  0          0  7.594e-09  2.734e-06   0.00%
amr-wind::FieldRepo::create_state                                        1   5.38e-07  6.399e-07  2.135e-06   0.00%
-------------------------------------------------------------------------------------------------------------------

Unused ParmParse Variables:
  [TOP]::incflo.gravity(nvals = 3)  :: [0.0, 0.0, -9.81]
  [TOP]::ABLForcing.abl_forcing_height(nvals = 1)  :: [0.0]
  [TOP]::io.KE_int(nvals = 1)  :: [-1]
  [TOP]::Actuator.T0.fllc(nvals = 1)  :: [false]
  [TOP]::sampling.Farm_hh.normal(nvals = 3)  :: [0.0, 0.0, 0.0]

Pinned Memory Usage:
---------------------------------------------------------------------------------------------------------------------
Name                            Nalloc  Nfree  AvgMem min  AvgMem avg  AvgMem max  MaxMem min  MaxMem avg  MaxMem max
---------------------------------------------------------------------------------------------------------------------
The_Pinned_Arena::Initialize()     360    360       1   B       8   B      10   B    8192 KiB    8192 KiB    8192 KiB
---------------------------------------------------------------------------------------------------------------------

AMReX (23.04-23-g2f47d132d71c) finalized
