==============================================================================
                AMR-Wind (https://github.com/exawind/amr-wind)

  AMR-Wind version :: caebcd1-DIRTY
  AMR-Wind Git SHA :: caebcd1f2841cf780ea3dcd566f05dbc21bc476f-DIRTY
  AMReX version    :: 23.04-23-g2f47d132d71c

  Exec. time       :: Mon Aug  7 10:31:45 2023
  Build time       :: Jul 18 2023 12:15:26
  C++ compiler     :: GNU 9.3.0

  MPI              :: ON    (Num. ranks = 360)
  GPU              :: OFF
  OpenMP           :: OFF

  Enabled third-party libraries: 
    NetCDF    4.9.2
    HYPRE     2.28.0
    OpenFAST  

           This software is released under the BSD 3-clause license.           
 See https://github.com/Exawind/amr-wind/blob/development/LICENSE for details. 
------------------------------------------------------------------------------

MPI initialized with 360 MPI processes
MPI initialized with thread support level 0
AMReX (23.04-23-g2f47d132d71c) initialized
Initializing AMR-Wind ...
Initializing boundary conditions for velocity_mueff
Initializing boundary conditions for velocity
Initializing boundary conditions for density
Initializing boundary conditions for p
Initializing boundary conditions for velocity_src_term
Initializing boundary conditions for gp
Creating PDESystem instance: ICNS-Godunov
Creating Physics instance: FreeStream
Creating Physics instance: Actuator
Creating TurbulenceModel instance: Laminar-ConstTransport
Creating PostProcessBase instance: Sampling
Initializing I/O manager
Creating UDF instance: ConstValue
Creating UDF instance: ConstValue
Creating ActuatorModel instance: JoukowskyDisk
Creating mesh... done
Grid summary: 
  Level 0   1458 grids  47775744 cells  100 % of domain
            smallest grid: 32 x 32 x 32  biggest grid: 32 x 32 x 32

For mflux_type, default is upwind
Creating MomentumSource instance: ActuatorForcing
Creating SamplerBase instance: PlaneSampler
Begin initial projection
  Nodal_projection               0                     0                     0
Completed initial projection

Begin initial pressure iterations. Num. iters = 3
dt: 0.05
CFL: 0.04 (conv: 0.04 diff: 0 src: 0 )

Godunov:
  System                     Iters      Initial residual        Final residual
  ----------------------------------------------------------------------------
  MAC_projection                 0       1.088018564e-16       1.088018564e-16
  velocity_solve                 0                     0                     0
  Nodal_projection               0                     0                     0

Godunov:
  System                     Iters      Initial residual        Final residual
  ----------------------------------------------------------------------------
  MAC_projection                 0       1.088018564e-16       1.088018564e-16
  velocity_solve                 0                     0                     0
  Nodal_projection               0                     0                     0

Godunov:
  System                     Iters      Initial residual        Final residual
  ----------------------------------------------------------------------------
  MAC_projection                 0       1.088018564e-16       1.088018564e-16
  velocity_solve                 0                     0                     0
  Nodal_projection               0                     0                     0
Completed initial pressure iterations

Writing plot file       plt00000 at time 0
Initialization successful. Time elapsed = 4.261778768

Begin simulation: 
  Run till 600 seconds 
  Fixed timestepping with dt = 0.05; max. CFL from inputs = 0.5

==============================================================================
Step: 1 dt: 0.05 Time: 0 to 0.05
CFL: 0.04 (conv: 0.04 diff: 0 src: 0 )

Godunov:
  System                     Iters      Initial residual        Final residual
  ----------------------------------------------------------------------------
  MAC_projection                 9       0.0004712480159       5.973835386e-16
  velocity_solve                 0       5.820588456e-11       5.820588456e-11
  Nodal_projection               6       0.0007342579271       6.680283316e-16

WallClockTime: 1 Pre: 0.0174 Solve: 2.196 Post: 9.64e-06 Total: 2.213
Solve time per cell: 1.655e-05

==============================================================================
Step: 2 dt: 0.05 Time: 0.05 to 0.1
CFL: 0.0409183 (conv: 0.0400113 diff: 0 src: 0.0060921 )

Godunov:
  System                     Iters      Initial residual        Final residual
  ----------------------------------------------------------------------------
  MAC_projection                 7       0.0002052790611       5.596164994e-15
  velocity_solve                 0        8.59028404e-11        8.59028404e-11
  Nodal_projection               6       0.0007565916377       6.745697956e-16

WallClockTime: 2 Pre: 0.00438 Solve: 2.163 Post: 9.81e-06 Total: 2.168
Solve time per cell: 1.63e-05

==============================================================================
Step: 3 dt: 0.05 Time: 0.1 to 0.15
CFL: 0.0403044 (conv: 0.0400218 diff: 0 src: 0.00337471 )

Godunov:
  System                     Iters      Initial residual        Final residual
  ----------------------------------------------------------------------------
  MAC_projection                 7       0.0002973722674       6.196169676e-15
  velocity_solve                 1       1.265281213e-10       7.105427358e-14
  Nodal_projection               6       0.0007584288782       6.745848875e-16

WallClockTime: 3 Pre: 0.00435 Solve: 2.293 Post: 1.1e-05 Total: 2.297
Solve time per cell: 1.728e-05

==============================================================================
Step: 4 dt: 0.05 Time: 0.15 to 0.2
CFL: 0.0403149 (conv: 0.0400324 diff: 0 src: 0.00337475 )

Godunov:
  System                     Iters      Initial residual        Final residual
  ----------------------------------------------------------------------------
  MAC_projection                 7       0.0003798990451       6.393390286e-15
  velocity_solve                 1       1.683844175e-10       9.414691249e-14
  Nodal_projection               6       0.0007582429719       6.745721828e-16

WallClockTime: 4 Pre: 0.00554 Solve: 2.259 Post: 1.04e-05 Total: 2.265
Solve time per cell: 1.702e-05

==============================================================================
Step: 5 dt: 0.05 Time: 0.2 to 0.25
CFL: 0.0403255 (conv: 0.040043 diff: 0 src: 0.00337549 )

Godunov:
  System                     Iters      Initial residual        Final residual
  ----------------------------------------------------------------------------
  MAC_projection                 7       0.0004556005965       7.015755368e-15
  velocity_solve                 1       2.108997421e-10       1.172395514e-13
  Nodal_projection               6       0.0007577311935       6.746117675e-16

WallClockTime: 5 Pre: 0.00443 Solve: 2.258 Post: 9.21e-06 Total: 2.263
Solve time per cell: 1.702e-05

==============================================================================
Step: 6 dt: 0.05 Time: 0.25 to 0.3
CFL: 0.0403363 (conv: 0.0400537 diff: 0 src: 0.0033764 )

Godunov:
  System                     Iters      Initial residual        Final residual
  ----------------------------------------------------------------------------
  MAC_projection                 7       0.0005276946192       7.662708968e-15
  velocity_solve                 1       2.538840249e-10       1.403321903e-13
  Nodal_projection               6       0.0007573290457       6.745553977e-16

WallClockTime: 6 Pre: 0.0044 Solve: 2.262 Post: 8.95e-06 Total: 2.267
Solve time per cell: 1.705e-05

==============================================================================
Step: 7 dt: 0.05 Time: 0.3 to 0.35
CFL: 0.0403471 (conv: 0.0400644 diff: 0 src: 0.00337729 )

Godunov:
  System                     Iters      Initial residual        Final residual
  ----------------------------------------------------------------------------
  MAC_projection                 7       0.0005976464528       8.247938431e-15
  velocity_solve                 1       2.972306845e-10       1.652011861e-13
  Nodal_projection               6       0.0007573093518       6.745860952e-16

WallClockTime: 7 Pre: 0.00409 Solve: 2.259 Post: 1.06e-05 Total: 2.263
Solve time per cell: 1.702e-05

==============================================================================
Step: 8 dt: 0.05 Time: 0.35 to 0.4
CFL: 0.040358 (conv: 0.0400752 diff: 0 src: 0.00337812 )

Godunov:
  System                     Iters      Initial residual        Final residual
  ----------------------------------------------------------------------------
  MAC_projection                 7       0.0006662468818       8.530262348e-15
  velocity_solve                 1       3.408491267e-10        1.88293825e-13
  Nodal_projection               6       0.0007573098599       6.745869736e-16

WallClockTime: 8 Pre: 0.00411 Solve: 2.26 Post: 9.23e-06 Total: 2.265
Solve time per cell: 1.703e-05

==============================================================================
Step: 9 dt: 0.05 Time: 0.4 to 0.45
CFL: 0.0403689 (conv: 0.0400861 diff: 0 src: 0.00337886 )

Godunov:
  System                     Iters      Initial residual        Final residual
  ----------------------------------------------------------------------------
  MAC_projection                 7       0.0007345524972       8.922155481e-15
  velocity_solve                 1       3.846594154e-10       2.149391776e-13
  Nodal_projection               6       0.0007572761754       6.746168464e-16

WallClockTime: 9 Pre: 0.00409 Solve: 2.261 Post: 8.98e-06 Total: 2.265
Solve time per cell: 1.704e-05

==============================================================================
Step: 10 dt: 0.05 Time: 0.45 to 0.5
CFL: 0.0403798 (conv: 0.040097 diff: 0 src: 0.00337943 )

Godunov:
  System                     Iters      Initial residual        Final residual
  ----------------------------------------------------------------------------
  MAC_projection                 7       0.0008027904067       9.578590769e-15
  velocity_solve                 1       4.285958255e-10       2.380318165e-13
  Nodal_projection               6       0.0007574130068       6.746175868e-16

WallClockTime: 10 Pre: 0.00408 Solve: 2.26 Post: 1.02e-05 Total: 2.264
Solve time per cell: 1.703e-05

==============================================================================
Step: 11 dt: 0.05 Time: 0.5 to 0.55
CFL: 0.0403908 (conv: 0.0401079 diff: 0 src: 0.00338004 )

Godunov:
  System                     Iters      Initial residual        Final residual
  ----------------------------------------------------------------------------
  MAC_projection                 7       0.0008712043748       9.849105987e-15
  velocity_solve                 1       4.725837499e-10       2.629008122e-13
  Nodal_projection               6       0.0007578655957       6.746312195e-16

WallClockTime: 11 Pre: 0.00672 Solve: 2.267 Post: 1.02e-05 Total: 2.273
Solve time per cell: 1.708e-05

==============================================================================
Step: 12 dt: 0.05 Time: 0.55 to 0.6
CFL: 0.0404018 (conv: 0.0401189 diff: 0 src: 0.0033813 )

Godunov:
  System                     Iters      Initial residual        Final residual
  ----------------------------------------------------------------------------
  MAC_projection                 8       0.0009402138576       4.935999797e-16
  velocity_solve                 1         5.1652016e-10        2.87769808e-13
  Nodal_projection               6       0.0007581677245       6.746095366e-16

WallClockTime: 12 Pre: 0.00409 Solve: 2.303 Post: 9.77e-06 Total: 2.307
Solve time per cell: 1.735e-05

==============================================================================
Step: 13 dt: 0.05 Time: 0.6 to 0.65
CFL: 0.0404129 (conv: 0.0401298 diff: 0 src: 0.00338242 )

Godunov:
  System                     Iters      Initial residual        Final residual
  ----------------------------------------------------------------------------
  MAC_projection                 8        0.001000187664       5.153348451e-16
  velocity_solve                 1       5.601865638e-10       3.126388037e-13
  Nodal_projection               6       0.0007582581366       6.746145494e-16

WallClockTime: 13 Pre: 0.00412 Solve: 2.28 Post: 8.4e-06 Total: 2.284
Solve time per cell: 1.718e-05

==============================================================================
Step: 14 dt: 0.05 Time: 0.65 to 0.7
CFL: 0.0404239 (conv: 0.0401407 diff: 0 src: 0.00338347 )

Godunov:
  System                     Iters      Initial residual        Final residual
  ----------------------------------------------------------------------------
  MAC_projection                 8         0.00105495681       5.457433279e-16
  velocity_solve                 1       6.035474343e-10       3.375077995e-13
  Nodal_projection               6       0.0007582818026       6.746393044e-16

WallClockTime: 14 Pre: 0.00406 Solve: 2.277 Post: 9.38e-06 Total: 2.281
Solve time per cell: 1.716e-05

==============================================================================
Step: 15 dt: 0.05 Time: 0.7 to 0.75
CFL: 0.040435 (conv: 0.0401517 diff: 0 src: 0.0033846 )

Godunov:
  System                     Iters      Initial residual        Final residual
  ----------------------------------------------------------------------------
  MAC_projection                 8        0.001107698565       5.631888185e-16
  velocity_solve                 1       6.465068481e-10       3.606004384e-13
  Nodal_projection               6       0.0007582748683       6.746531696e-16

WallClockTime: 15 Pre: 0.0041 Solve: 2.283 Post: 1.1e-05 Total: 2.287
Solve time per cell: 1.72e-05

==============================================================================
Step: 16 dt: 0.05 Time: 0.75 to 0.8
CFL: 0.040446 (conv: 0.0401625 diff: 0 src: 0.00338579 )

Godunov:
  System                     Iters      Initial residual        Final residual
  ----------------------------------------------------------------------------
  MAC_projection                 8        0.001158411135       5.926520125e-16
  velocity_solve                 1       6.890044091e-10       3.854694341e-13
  Nodal_projection               6        0.000758252966       6.746345332e-16

WallClockTime: 16 Pre: 0.00424 Solve: 2.305 Post: 8.78e-06 Total: 2.309
Solve time per cell: 1.737e-05

==============================================================================
Step: 17 dt: 0.05 Time: 0.8 to 0.85
CFL: 0.040457 (conv: 0.0401734 diff: 0 src: 0.00338716 )

Godunov:
  System                     Iters      Initial residual        Final residual
  ----------------------------------------------------------------------------
  MAC_projection                 8        0.001209445963       6.150136823e-16
  velocity_solve                 1       7.310028138e-10       4.103384299e-13
  Nodal_projection               6        0.000758224269       6.746476283e-16

WallClockTime: 17 Pre: 0.00471 Solve: 2.279 Post: 1.01e-05 Total: 2.284
Solve time per cell: 1.717e-05

==============================================================================
Step: 18 dt: 0.05 Time: 0.85 to 0.9
CFL: 0.040468 (conv: 0.0401842 diff: 0 src: 0.00338866 )

Godunov:
  System                     Iters      Initial residual        Final residual
  ----------------------------------------------------------------------------
  MAC_projection                 8        0.001271822171       6.425795226e-16
  velocity_solve                 1        7.72480746e-10        4.31654712e-13
  Nodal_projection               6       0.0007581788661       6.746675088e-16

WallClockTime: 18 Pre: 0.00406 Solve: 2.284 Post: 9.66e-06 Total: 2.288
Solve time per cell: 1.721e-05

==============================================================================
Step: 19 dt: 0.05 Time: 0.9 to 0.95
CFL: 0.0404789 (conv: 0.040195 diff: 0 src: 0.00339028 )

Godunov:
  System                     Iters      Initial residual        Final residual
  ----------------------------------------------------------------------------
  MAC_projection                 8        0.001329281062       6.697116819e-16
  velocity_solve                 1       8.133795859e-10       4.565237077e-13
  Nodal_projection               6       0.0007581265983       6.746837897e-16

WallClockTime: 19 Pre: 0.00408 Solve: 2.278 Post: 9.86e-06 Total: 2.282
Solve time per cell: 1.717e-05

==============================================================================
Step: 20 dt: 0.05 Time: 0.95 to 1
CFL: 0.0404898 (conv: 0.0402056 diff: 0 src: 0.00339189 )

Godunov:
  System                     Iters      Initial residual        Final residual
  ----------------------------------------------------------------------------
  MAC_projection                 8        0.001380754142       6.776263578e-16
  velocity_solve                 1        8.53667359e-10       4.796163466e-13
  Nodal_projection               6       0.0007580704107       6.746979962e-16

WallClockTime: 20 Pre: 0.00409 Solve: 2.278 Post: 9.27e-06 Total: 2.282
Solve time per cell: 1.717e-05

==============================================================================
Step: 21 dt: 0.05 Time: 1 to 1.05
CFL: 0.0405006 (conv: 0.0402163 diff: 0 src: 0.0033934 )

Godunov:
  System                     Iters      Initial residual        Final residual
  ----------------------------------------------------------------------------
  MAC_projection                 7        0.001425300747       1.369984651e-14
  velocity_solve                 1       8.933334072e-10       5.027089856e-13
  Nodal_projection               6       0.0007580064284       6.746907592e-16

WallClockTime: 21 Pre: 0.00618 Solve: 2.261 Post: 1.02e-05 Total: 2.267
Solve time per cell: 1.703e-05

==============================================================================
Step: 22 dt: 0.05 Time: 1.05 to 1.1
CFL: 0.0405113 (conv: 0.0402268 diff: 0 src: 0.00339477 )

Godunov:
  System                     Iters      Initial residual        Final residual
  ----------------------------------------------------------------------------
  MAC_projection                 7        0.001462928911       1.416457622e-14
  velocity_solve                 1       9.323581907e-10       5.258016245e-13
  Nodal_projection               6       0.0007581990035       6.747529578e-16

WallClockTime: 22 Pre: 0.00409 Solve: 2.261 Post: 8.68e-06 Total: 2.265
Solve time per cell: 1.704e-05

==============================================================================
Step: 23 dt: 0.05 Time: 1.1 to 1.15
CFL: 0.0405218 (conv: 0.0402372 diff: 0 src: 0.00339574 )

Godunov:
  System                     Iters      Initial residual        Final residual
  ----------------------------------------------------------------------------
  MAC_projection                 7        0.001493993904        1.37444716e-14
  velocity_solve                 1       9.707274984e-10       5.471179065e-13
  Nodal_projection               6       0.0007584404429       6.747323688e-16

WallClockTime: 23 Pre: 0.00417 Solve: 2.28 Post: 8.56e-06 Total: 2.284
Solve time per cell: 1.718e-05

==============================================================================
Step: 24 dt: 0.05 Time: 1.15 to 1.2
CFL: 0.0405321 (conv: 0.0402476 diff: 0 src: 0.00339618 )

Godunov:
  System                     Iters      Initial residual        Final residual
  ----------------------------------------------------------------------------
  MAC_projection                 7        0.001519200273       1.426085676e-14
  velocity_solve                 1       1.008416461e-09       5.684341886e-13
  Nodal_projection               6       0.0007586581385       6.747269992e-16

WallClockTime: 24 Pre: 0.00407 Solve: 2.291 Post: 1e-05 Total: 2.295
Solve time per cell: 1.726e-05

==============================================================================
Step: 25 dt: 0.05 Time: 1.2 to 1.25
CFL: 0.0405423 (conv: 0.0402578 diff: 0 src: 0.00339623 )

Godunov:
  System                     Iters      Initial residual        Final residual
  ----------------------------------------------------------------------------
  MAC_projection                 7        0.001538845412       1.514086979e-14
  velocity_solve                 1        1.04540554e-09       5.897504707e-13
  Nodal_projection               6       0.0007588441252       6.747778981e-16

WallClockTime: 25 Pre: 0.00408 Solve: 2.264 Post: 8.93e-06 Total: 2.268
Solve time per cell: 1.706e-05

==============================================================================
Step: 26 dt: 0.05 Time: 1.25 to 1.3
CFL: 0.0405523 (conv: 0.0402679 diff: 0 src: 0.00339594 )

Godunov:
  System                     Iters      Initial residual        Final residual
  ----------------------------------------------------------------------------
  MAC_projection                 7        0.001569384976       1.513330409e-14
  velocity_solve                 1       1.081664536e-09       6.110667528e-13
  Nodal_projection               6       0.0007590016812       6.748033312e-16

WallClockTime: 26 Pre: 0.00406 Solve: 2.263 Post: 1e-05 Total: 2.267
Solve time per cell: 1.705e-05

==============================================================================
Step: 27 dt: 0.05 Time: 1.3 to 1.35
CFL: 0.0405622 (conv: 0.0402779 diff: 0 src: 0.00339546 )

Godunov:
  System                     Iters      Initial residual        Final residual
  ----------------------------------------------------------------------------
  MAC_projection                 7        0.001603264716       1.572567489e-14
  velocity_solve                 1       1.117141935e-09       6.323830348e-13
  Nodal_projection               6       0.0007591498687       6.748229422e-16

WallClockTime: 27 Pre: 0.00407 Solve: 2.293 Post: 1.01e-05 Total: 2.297
Solve time per cell: 1.728e-05

==============================================================================
Step: 28 dt: 0.05 Time: 1.35 to 1.4
CFL: 0.0405719 (conv: 0.0402878 diff: 0 src: 0.00339487 )

Godunov:
  System                     Iters      Initial residual        Final residual
  ----------------------------------------------------------------------------
  MAC_projection                 8         0.00163615175        7.67330535e-16
  velocity_solve                 1       1.151775564e-09       6.536993169e-13
  Nodal_projection               6       0.0007592756106       6.748184161e-16

WallClockTime: 28 Pre: 0.0041 Solve: 2.276 Post: 1.01e-05 Total: 2.28
Solve time per cell: 1.715e-05

==============================================================================
Step: 29 dt: 0.05 Time: 1.4 to 1.45
CFL: 0.0405815 (conv: 0.0402976 diff: 0 src: 0.00339419 )

Godunov:
  System                     Iters      Initial residual        Final residual
  ----------------------------------------------------------------------------
  MAC_projection                 8        0.001667969329       7.887638567e-16
  velocity_solve                 1       1.185496146e-09       6.732392421e-13
  Nodal_projection               6       0.0007593701748       6.748799149e-16

WallClockTime: 29 Pre: 0.00409 Solve: 2.281 Post: 9.41e-06 Total: 2.285
Solve time per cell: 1.719e-05

==============================================================================
Step: 30 dt: 0.05 Time: 1.45 to 1.5
CFL: 0.0405909 (conv: 0.0403072 diff: 0 src: 0.00339345 )

Godunov:
  System                     Iters      Initial residual        Final residual
  ----------------------------------------------------------------------------
  MAC_projection                 8        0.001698798053       8.166075238e-16
  velocity_solve                 1       1.218205981e-09       6.910028105e-13
  Nodal_projection               6       0.0007594227044       6.748933475e-16

WallClockTime: 30 Pre: 0.00411 Solve: 2.28 Post: 9.23e-06 Total: 2.284
Solve time per cell: 1.718e-05

==============================================================================
Step: 31 dt: 0.05 Time: 1.5 to 1.55
CFL: 0.0406002 (conv: 0.0403167 diff: 0 src: 0.0033927 )

Godunov:
  System                     Iters      Initial residual        Final residual
  ----------------------------------------------------------------------------
  MAC_projection                 8        0.001728843729       8.434144225e-16
  velocity_solve                 1       1.249922832e-09       7.105427358e-13
  Nodal_projection               6       0.0007594375651       6.748802509e-16

WallClockTime: 31 Pre: 0.006 Solve: 2.278 Post: 8.9e-06 Total: 2.284
Solve time per cell: 1.717e-05

==============================================================================
Step: 32 dt: 0.05 Time: 1.55 to 1.6
CFL: 0.0406094 (conv: 0.0403261 diff: 0 src: 0.00339227 )

Godunov:
  System                     Iters      Initial residual        Final residual
  ----------------------------------------------------------------------------
  MAC_projection                 8         0.00175816969       8.430552805e-16
  velocity_solve                 1        1.28071953e-09       7.283063042e-13
  Nodal_projection               6        0.000759418771       6.749137038e-16

WallClockTime: 32 Pre: 0.00411 Solve: 2.277 Post: 9.33e-06 Total: 2.281
Solve time per cell: 1.716e-05

==============================================================================
Step: 33 dt: 0.05 Time: 1.6 to 1.65
CFL: 0.0406185 (conv: 0.0403352 diff: 0 src: 0.00339223 )

Godunov:
  System                     Iters      Initial residual        Final residual
  ----------------------------------------------------------------------------
  MAC_projection                 8        0.001786851321       8.605719219e-16
  velocity_solve                 1        1.31063338e-09       7.460698725e-13
  Nodal_projection               6       0.0007594064627       6.749408355e-16

WallClockTime: 33 Pre: 0.00408 Solve: 2.305 Post: 9.01e-06 Total: 2.309
Solve time per cell: 1.737e-05

==============================================================================
Step: 34 dt: 0.05 Time: 1.65 to 1.7
CFL: 0.0406276 (conv: 0.0403443 diff: 0 src: 0.0033927 )

Godunov:
  System                     Iters      Initial residual        Final residual
  ----------------------------------------------------------------------------
  MAC_projection                 8         0.00181493301       8.978727118e-16
  velocity_solve                 1       1.339694577e-09       7.656097978e-13
  Nodal_projection               6       0.0007593477403        6.74983749e-16

WallClockTime: 34 Pre: 0.00413 Solve: 2.282 Post: 9.42e-06 Total: 2.286
Solve time per cell: 1.72e-05

==============================================================================
Step: 35 dt: 0.05 Time: 1.7 to 1.75
CFL: 0.0406365 (conv: 0.0403531 diff: 0 src: 0.00339366 )

Godunov:
  System                     Iters      Initial residual        Final residual
  ----------------------------------------------------------------------------
  MAC_projection                 8         0.00184245927       8.994740276e-16
  velocity_solve                 1       1.367897795e-09       7.815970093e-13
  Nodal_projection               6       0.0007592671395       6.750012459e-16

WallClockTime: 35 Pre: 0.00407 Solve: 2.286 Post: 9.97e-06 Total: 2.29
Solve time per cell: 1.723e-05

==============================================================================
Step: 36 dt: 0.05 Time: 1.75 to 1.8
CFL: 0.0406454 (conv: 0.0403618 diff: 0 src: 0.0033948 )

Godunov:
  System                     Iters      Initial residual        Final residual
  ----------------------------------------------------------------------------
  MAC_projection                 8        0.001869492197       9.491478512e-16
  velocity_solve                 1       1.395243032e-09       7.975842209e-13
  Nodal_projection               6       0.0007592154458       6.750438499e-16

WallClockTime: 36 Pre: 0.00437 Solve: 2.281 Post: 8.84e-06 Total: 2.285
Solve time per cell: 1.719e-05

==============================================================================
Step: 37 dt: 0.05 Time: 1.8 to 1.85
CFL: 0.0406542 (conv: 0.0403705 diff: 0 src: 0.00339628 )

Godunov:
  System                     Iters      Initial residual        Final residual
  ----------------------------------------------------------------------------
  MAC_projection                 8        0.001896475974       9.792293793e-16
  velocity_solve                 1        1.42170542e-09       8.135714324e-13
  Nodal_projection               6       0.0007591768333       6.750406826e-16

WallClockTime: 37 Pre: 0.00406 Solve: 2.563 Post: 9.47e-06 Total: 2.567
Solve time per cell: 1.931e-05

==============================================================================
Step: 38 dt: 0.05 Time: 1.85 to 1.9
CFL: 0.040663 (conv: 0.040379 diff: 0 src: 0.00339807 )

Godunov:
  System                     Iters      Initial residual        Final residual
  ----------------------------------------------------------------------------
  MAC_projection                 8        0.001922988672       1.031131323e-15
  velocity_solve                 1       1.447265419e-09       8.277822872e-13
  Nodal_projection               6        0.000759157293       6.750917267e-16

WallClockTime: 38 Pre: 0.00407 Solve: 2.286 Post: 1.02e-05 Total: 2.29
Solve time per cell: 1.723e-05

==============================================================================
Step: 39 dt: 0.05 Time: 1.9 to 1.95
CFL: 0.0406715 (conv: 0.0403873 diff: 0 src: 0.00339947 )

Godunov:
  System                     Iters      Initial residual        Final residual
  ----------------------------------------------------------------------------
  MAC_projection                 8        0.001949020472       1.104480988e-15
  velocity_solve                 1       1.471889277e-09       8.437694987e-13
  Nodal_projection               6       0.0007591632718       6.751420222e-16

WallClockTime: 39 Pre: 0.00411 Solve: 2.309 Post: 9.69e-06 Total: 2.313
Solve time per cell: 1.74e-05

==============================================================================
Step: 40 dt: 0.05 Time: 1.95 to 2
CFL: 0.0406797 (conv: 0.0403955 diff: 0 src: 0.00340045 )

Godunov:
  System                     Iters      Initial residual        Final residual
  ----------------------------------------------------------------------------
  MAC_projection                 8        0.001974553914       1.126484363e-15
  velocity_solve                 1       1.495543245e-09       8.579803534e-13
  Nodal_projection               6       0.0007591954935       6.752090974e-16

WallClockTime: 40 Pre: 0.00408 Solve: 2.309 Post: 9.49e-06 Total: 2.313
Solve time per cell: 1.74e-05

==============================================================================
Step: 41 dt: 0.05 Time: 2 to 2.05
CFL: 0.0406877 (conv: 0.0404034 diff: 0 src: 0.00340104 )

Godunov:
  System                     Iters      Initial residual        Final residual
  ----------------------------------------------------------------------------
  MAC_projection                 8        0.001999533843       1.135322305e-15
  velocity_solve                 1       1.518134951e-09       8.721912081e-13
  Nodal_projection               6       0.0007592435662       6.752056137e-16

WallClockTime: 41 Pre: 0.00571 Solve: 2.282 Post: 9.42e-06 Total: 2.287
Solve time per cell: 1.719e-05

==============================================================================
Step: 42 dt: 0.05 Time: 2.05 to 2.1
CFL: 0.0406955 (conv: 0.0404112 diff: 0 src: 0.00340124 )

Godunov:
  System                     Iters      Initial residual        Final residual
  ----------------------------------------------------------------------------
  MAC_projection                 8        0.002024823193        1.14913233e-15
  velocity_solve                 1       1.539561367e-09        8.84625706e-13
  Nodal_projection               6        0.000759297809       6.753040929e-16

WallClockTime: 42 Pre: 0.00408 Solve: 2.278 Post: 8.94e-06 Total: 2.282
Solve time per cell: 1.717e-05

==============================================================================
Step: 43 dt: 0.05 Time: 2.1 to 2.15
CFL: 0.040703 (conv: 0.0404188 diff: 0 src: 0.00340111 )

Godunov:
  System                     Iters      Initial residual        Final residual
  ----------------------------------------------------------------------------
  MAC_projection                 8        0.002049845485       1.212598815e-15
  velocity_solve                 1        1.55988289e-09       8.988365607e-13
  Nodal_projection               6        0.000759353643       6.753276779e-16

WallClockTime: 43 Pre: 0.00426 Solve: 2.278 Post: 8.81e-06 Total: 2.283
Solve time per cell: 1.717e-05

==============================================================================
Step: 44 dt: 0.05 Time: 2.15 to 2.2
CFL: 0.0407102 (conv: 0.0404261 diff: 0 src: 0.00340075 )

Godunov:
  System                     Iters      Initial residual        Final residual
  ----------------------------------------------------------------------------
  MAC_projection                 8        0.002073993299       1.261902909e-15
  velocity_solve                 1       1.579138598e-09       9.094947018e-13
  Nodal_projection               6       0.0007594009372       6.753409959e-16

WallClockTime: 44 Pre: 0.00408 Solve: 2.325 Post: 9.05e-06 Total: 2.329
Solve time per cell: 1.752e-05

==============================================================================
Step: 45 dt: 0.05 Time: 2.2 to 2.25
CFL: 0.0407173 (conv: 0.0404333 diff: 0 src: 0.00340044 )

Godunov:
  System                     Iters      Initial residual        Final residual
  ----------------------------------------------------------------------------
  MAC_projection                 8        0.002097280408       1.320771698e-15
  velocity_solve                 1       1.597200594e-09       9.219291996e-13
  Nodal_projection               6       0.0007594324187       6.754189403e-16

WallClockTime: 45 Pre: 0.00408 Solve: 2.277 Post: 8.67e-06 Total: 2.281
Solve time per cell: 1.716e-05

==============================================================================
Step: 46 dt: 0.05 Time: 2.25 to 2.3
CFL: 0.0407242 (conv: 0.0404403 diff: 0 src: 0.00340009 )

Godunov:
  System                     Iters      Initial residual        Final residual
  ----------------------------------------------------------------------------
  MAC_projection                 8        0.002119660803       1.390909415e-15
  velocity_solve                 1       1.614051115e-09       9.308109838e-13
  Nodal_projection               6       0.0007594453281       6.754583654e-16

WallClockTime: 46 Pre: 0.0041 Solve: 2.302 Post: 9.25e-06 Total: 2.306
Solve time per cell: 1.735e-05

==============================================================================
Step: 47 dt: 0.05 Time: 2.3 to 2.35
CFL: 0.0407308 (conv: 0.0404471 diff: 0 src: 0.00339959 )

Godunov:
  System                     Iters      Initial residual        Final residual
  ----------------------------------------------------------------------------
  MAC_projection                 8        0.002141104878       1.374827647e-15
  velocity_solve                 1       1.629681279e-09       9.414691249e-13
  Nodal_projection               6        0.000759436525       6.755205495e-16

WallClockTime: 47 Pre: 0.00409 Solve: 2.282 Post: 9.44e-06 Total: 2.286
Solve time per cell: 1.719e-05

==============================================================================
Step: 48 dt: 0.05 Time: 2.35 to 2.4
CFL: 0.0407373 (conv: 0.0404537 diff: 0 src: 0.00339898 )

Godunov:
  System                     Iters      Initial residual        Final residual
  ----------------------------------------------------------------------------
  MAC_projection                 8        0.002161586463       1.337941903e-15
  velocity_solve                 1       1.644076875e-09       9.503509091e-13
  Nodal_projection               6       0.0007594399721       6.755556989e-16

WallClockTime: 48 Pre: 0.00409 Solve: 2.28 Post: 9.37e-06 Total: 2.284
Solve time per cell: 1.718e-05

==============================================================================
Step: 49 dt: 0.05 Time: 2.4 to 2.45
CFL: 0.0407435 (conv: 0.04046 diff: 0 src: 0.00339829 )

Godunov:
  System                     Iters      Initial residual        Final residual
  ----------------------------------------------------------------------------
  MAC_projection                 8        0.002181075503       1.373521522e-15
  velocity_solve                 1       1.657239679e-09       9.610090501e-13
  Nodal_projection               6        0.000759613514        6.75626475e-16

WallClockTime: 49 Pre: 0.00403 Solve: 2.276 Post: 8.64e-06 Total: 2.28
Solve time per cell: 1.715e-05

==============================================================================
Step: 50 dt: 0.05 Time: 2.45 to 2.5
CFL: 0.0407495 (conv: 0.0404662 diff: 0 src: 0.00339753 )

Godunov:
  System                     Iters      Initial residual        Final residual
  ----------------------------------------------------------------------------
  MAC_projection                 8        0.002199546753       1.400626577e-15
  velocity_solve                 1       1.669183902e-09       9.681144775e-13
  Nodal_projection               6       0.0007597804246       6.756704876e-16

WallClockTime: 50 Pre: 0.0044 Solve: 2.55 Post: 9.19e-06 Total: 2.554
Solve time per cell: 1.921e-05

==============================================================================
Step: 51 dt: 0.05 Time: 2.5 to 2.55
CFL: 0.0407553 (conv: 0.0404722 diff: 0 src: 0.00339672 )

Godunov:
  System                     Iters      Initial residual        Final residual
  ----------------------------------------------------------------------------
  MAC_projection                 8        0.002216974672       1.393958733e-15
  velocity_solve                 1       1.680103168e-09       9.752199048e-13
  Nodal_projection               6       0.0007599192429       6.757527383e-16

WallClockTime: 51 Pre: 0.00603 Solve: 2.286 Post: 9.73e-06 Total: 2.292
Solve time per cell: 1.723e-05

==============================================================================
Step: 52 dt: 0.05 Time: 2.55 to 2.6
CFL: 0.0407609 (conv: 0.040478 diff: 0 src: 0.00339586 )

Godunov:
  System                     Iters      Initial residual        Final residual
  ----------------------------------------------------------------------------
  MAC_projection                 8        0.002233340341       1.415425936e-15
  velocity_solve                 1       1.689846485e-09        9.84101689e-13
  Nodal_projection               6       0.0007600343097       6.758039259e-16

WallClockTime: 52 Pre: 0.00405 Solve: 2.304 Post: 9.81e-06 Total: 2.308
Solve time per cell: 1.736e-05

==============================================================================
Step: 53 dt: 0.05 Time: 2.6 to 2.65
CFL: 0.0407663 (conv: 0.0404836 diff: 0 src: 0.00339501 )

Godunov:
  System                     Iters      Initial residual        Final residual
  ----------------------------------------------------------------------------
  MAC_projection                 8        0.002248632111       1.480247674e-15
  velocity_solve                 1       1.698429841e-09       9.894307595e-13
  Nodal_projection               6       0.0007601294119       6.758376368e-16

WallClockTime: 53 Pre: 0.00404 Solve: 2.305 Post: 9.25e-06 Total: 2.309
Solve time per cell: 1.737e-05

==============================================================================
Step: 54 dt: 0.05 Time: 2.65 to 2.7
CFL: 0.0407728 (conv: 0.0404902 diff: 0 src: 0.00339409 )

Godunov:
  System                     Iters      Initial residual        Final residual
  ----------------------------------------------------------------------------
  MAC_projection                 8        0.002262842786       1.491482719e-15
  velocity_solve                 1       1.705885211e-09       9.929834732e-13
  Nodal_projection               6       0.0007602051358       6.758544038e-16

WallClockTime: 54 Pre: 0.0041 Solve: 2.282 Post: 9.19e-06 Total: 2.286
Solve time per cell: 1.719e-05

==============================================================================
Step: 55 dt: 0.05 Time: 2.7 to 2.75
CFL: 0.0407823 (conv: 0.0405 diff: 0 src: 0.00339316 )

Godunov:
  System                     Iters      Initial residual        Final residual
  ----------------------------------------------------------------------------
  MAC_projection                 8        0.002275971189       1.433640533e-15
  velocity_solve                 1       1.712246345e-09       9.983125437e-13
  Nodal_projection               6       0.0007602635779       6.759142379e-16

WallClockTime: 55 Pre: 0.00408 Solve: 2.307 Post: 9.66e-06 Total: 2.311
Solve time per cell: 1.738e-05

==============================================================================
Step: 56 dt: 0.05 Time: 2.75 to 2.8
CFL: 0.0407917 (conv: 0.0405096 diff: 0 src: 0.00339221 )

Godunov:
  System                     Iters      Initial residual        Final residual
  ----------------------------------------------------------------------------
  MAC_projection                 8        0.002288023513        1.45228881e-15
  velocity_solve                 1       1.717552323e-09       1.003641614e-12
  Nodal_projection               6       0.0007603008598       6.759793287e-16

WallClockTime: 56 Pre: 0.00405 Solve: 2.278 Post: 9.3e-06 Total: 2.282
Solve time per cell: 1.717e-05

==============================================================================
Step: 57 dt: 0.05 Time: 2.8 to 2.85
CFL: 0.0408009 (conv: 0.0405191 diff: 0 src: 0.00339125 )

Godunov:
  System                     Iters      Initial residual        Final residual
  ----------------------------------------------------------------------------
  MAC_projection                 8        0.002299010393       1.370106285e-15
  velocity_solve                 1       1.721852882e-09       1.005417971e-12
  Nodal_projection               6       0.0007603271988       6.760616555e-16

WallClockTime: 57 Pre: 0.00406 Solve: 2.279 Post: 8.94e-06 Total: 2.283
Solve time per cell: 1.717e-05

==============================================================================
Step: 58 dt: 0.05 Time: 2.85 to 2.9
CFL: 0.0408101 (conv: 0.0405285 diff: 0 src: 0.00339028 )

Godunov:
  System                     Iters      Initial residual        Final residual
  ----------------------------------------------------------------------------
  MAC_projection                 8        0.002308955148       1.407077579e-15
  velocity_solve                 1       1.725190657e-09       1.010747042e-12
  Nodal_projection               6       0.0007603412123       6.761297846e-16

WallClockTime: 58 Pre: 0.00409 Solve: 2.277 Post: 8.83e-06 Total: 2.281
Solve time per cell: 1.716e-05

==============================================================================
Step: 59 dt: 0.05 Time: 2.9 to 2.95
CFL: 0.0408192 (conv: 0.0405378 diff: 0 src: 0.00338929 )

Godunov:
  System                     Iters      Initial residual        Final residual
  ----------------------------------------------------------------------------
  MAC_projection                 8        0.002317883264       1.449469884e-15
  velocity_solve                 1       1.727618937e-09       1.012523398e-12
  Nodal_projection               6       0.0007603453439       6.761511887e-16

WallClockTime: 59 Pre: 0.00409 Solve: 2.277 Post: 8.78e-06 Total: 2.281
Solve time per cell: 1.716e-05

==============================================================================
Step: 60 dt: 0.05 Time: 2.95 to 3
CFL: 0.0408281 (conv: 0.0405469 diff: 0 src: 0.0033883 )

Godunov:
  System                     Iters      Initial residual        Final residual
  ----------------------------------------------------------------------------
  MAC_projection                 8        0.002325825206       1.422337725e-15
  velocity_solve                 1       1.729183907e-09       1.014299755e-12
  Nodal_projection               6       0.0007603421906        6.76184917e-16

WallClockTime: 60 Pre: 0.00408 Solve: 2.278 Post: 9.19e-06 Total: 2.282
Solve time per cell: 1.716e-05

==============================================================================
Step: 61 dt: 0.05 Time: 3 to 3.05
CFL: 0.040837 (conv: 0.040556 diff: 0 src: 0.0033873 )

Godunov:
  System                     Iters      Initial residual        Final residual
  ----------------------------------------------------------------------------
  MAC_projection                 8        0.002332814573       1.517605215e-15
  velocity_solve                 1       1.729935306e-09       1.016076112e-12
  Nodal_projection               6       0.0007603321841       6.762634462e-16

WallClockTime: 61 Pre: 0.00609 Solve: 2.282 Post: 9.21e-06 Total: 2.288
Solve time per cell: 1.719e-05

==============================================================================
Step: 62 dt: 0.05 Time: 3.05 to 3.1
CFL: 0.0408457 (conv: 0.0405649 diff: 0 src: 0.00338629 )

Godunov:
  System                     Iters      Initial residual        Final residual
  ----------------------------------------------------------------------------
  MAC_projection                 8        0.002338887428       1.571293551e-15
  velocity_solve                 1       1.729926424e-09       1.017852469e-12
  Nodal_projection               6       0.0007603138927       6.763332032e-16

WallClockTime: 62 Pre: 0.00403 Solve: 2.278 Post: 9.37e-06 Total: 2.282
Solve time per cell: 1.716e-05

==============================================================================
Step: 63 dt: 0.05 Time: 3.1 to 3.15
CFL: 0.0408542 (conv: 0.0405737 diff: 0 src: 0.00338523 )

Godunov:
  System                     Iters      Initial residual        Final residual
  ----------------------------------------------------------------------------
  MAC_projection                 8        0.002344083506       1.571374866e-15
  velocity_solve                 1       1.729201671e-09       1.017852469e-12
  Nodal_projection               6       0.0007602872476       6.763781729e-16

WallClockTime: 63 Pre: 0.00408 Solve: 2.426 Post: 9.31e-06 Total: 2.43
Solve time per cell: 1.828e-05

==============================================================================
Step: 64 dt: 0.05 Time: 3.15 to 3.2
CFL: 0.0408627 (conv: 0.0405824 diff: 0 src: 0.0033843 )

Godunov:
  System                     Iters      Initial residual        Final residual
  ----------------------------------------------------------------------------
  MAC_projection                 8         0.00234844358       1.552699484e-15
  velocity_solve                 1       1.727816112e-09       1.017852469e-12
  Nodal_projection               6       0.0007602531748       6.764339794e-16

WallClockTime: 64 Pre: 0.00407 Solve: 2.291 Post: 8.2e-06 Total: 2.295
Solve time per cell: 1.726e-05

==============================================================================
Step: 65 dt: 0.05 Time: 3.2 to 3.25
CFL: 0.040871 (conv: 0.0405909 diff: 0 src: 0.0033834 )

Godunov:
  System                     Iters      Initial residual        Final residual
  ----------------------------------------------------------------------------
  MAC_projection                 8        0.002352008184       1.551303573e-15
  velocity_solve                 1       1.725812382e-09       1.017852469e-12
  Nodal_projection               6       0.0007602106119       6.765372902e-16

WallClockTime: 65 Pre: 0.00402 Solve: 2.308 Post: 9.47e-06 Total: 2.312
Solve time per cell: 1.739e-05

==============================================================================
Step: 66 dt: 0.05 Time: 3.25 to 3.3
CFL: 0.0408792 (conv: 0.0405993 diff: 0 src: 0.00338255 )

Godunov:
  System                     Iters      Initial residual        Final residual
  ----------------------------------------------------------------------------
  MAC_projection                 8        0.002354820754       1.391288885e-15
  velocity_solve                 1       1.726625953e-09       1.019628826e-12
  Nodal_projection               6       0.0007601607301       6.765904795e-16

WallClockTime: 66 Pre: 0.00403 Solve: 2.298 Post: 9.21e-06 Total: 2.302
Solve time per cell: 1.732e-05

==============================================================================
Step: 67 dt: 0.05 Time: 3.3 to 3.35
CFL: 0.0408872 (conv: 0.0406075 diff: 0 src: 0.00338184 )

Godunov:
  System                     Iters      Initial residual        Final residual
  ----------------------------------------------------------------------------
  MAC_projection                 8        0.002410369014       1.425021125e-15
  velocity_solve                 1       1.750677825e-09       1.032063324e-12
  Nodal_projection               6       0.0007601086897       6.766409789e-16

WallClockTime: 67 Pre: 0.00404 Solve: 2.281 Post: 8.79e-06 Total: 2.285
Solve time per cell: 1.719e-05

==============================================================================
Step: 68 dt: 0.05 Time: 3.35 to 3.4
CFL: 0.0408952 (conv: 0.0406156 diff: 0 src: 0.00338122 )

Godunov:
  System                     Iters      Initial residual        Final residual
  ----------------------------------------------------------------------------
  MAC_projection                 8        0.002475353831       1.456002202e-15
  velocity_solve                 1       1.773743818e-09       1.046274178e-12
  Nodal_projection               6       0.0007600531456       6.766864854e-16

WallClockTime: 68 Pre: 0.0041 Solve: 2.281 Post: 1.01e-05 Total: 2.285
Solve time per cell: 1.719e-05

==============================================================================
Step: 69 dt: 0.05 Time: 3.4 to 3.45
CFL: 0.0409029 (conv: 0.0406235 diff: 0 src: 0.00338063 )

Godunov:
  System                     Iters      Initial residual        Final residual
  ----------------------------------------------------------------------------
  MAC_projection                 8        0.002520779286       1.363058971e-15
  velocity_solve                 1         1.7958115e-09       1.058708676e-12
  Nodal_projection               6       0.0007599925465       6.767651122e-16

WallClockTime: 69 Pre: 0.00403 Solve: 2.3 Post: 9.58e-06 Total: 2.304
Solve time per cell: 1.733e-05

==============================================================================
Step: 70 dt: 0.05 Time: 3.45 to 3.5
CFL: 0.0409106 (conv: 0.0406313 diff: 0 src: 0.00338008 )

Godunov:
  System                     Iters      Initial residual        Final residual
  ----------------------------------------------------------------------------
  MAC_projection                 8        0.002359357351       1.323282304e-15
  velocity_solve                 1       1.816863104e-09       1.069366817e-12
  Nodal_projection               6       0.0007599288044         6.7682434e-16

WallClockTime: 70 Pre: 0.00403 Solve: 2.307 Post: 9.14e-06 Total: 2.311
Solve time per cell: 1.738e-05

==============================================================================
Step: 71 dt: 0.05 Time: 3.5 to 3.55
CFL: 0.040918 (conv: 0.0406389 diff: 0 src: 0.00337956 )

Godunov:
  System                     Iters      Initial residual        Final residual
  ----------------------------------------------------------------------------
  MAC_projection                 8        0.002359019013       1.375093615e-15
  velocity_solve                 1       1.836882646e-09       1.078248602e-12
  Nodal_projection               6       0.0007598609167       6.768630479e-16

WallClockTime: 71 Pre: 0.00626 Solve: 2.281 Post: 9.49e-06 Total: 2.287
Solve time per cell: 1.719e-05

==============================================================================
Step: 72 dt: 0.05 Time: 3.55 to 3.6
CFL: 0.0409254 (conv: 0.0406464 diff: 0 src: 0.00337907 )

Godunov:
  System                     Iters      Initial residual        Final residual
  ----------------------------------------------------------------------------
  MAC_projection                 8        0.002358171807       1.367721041e-15
  velocity_solve                 1       1.855864795e-09       1.088906743e-12
  Nodal_projection               6       0.0007597897568       6.769620093e-16

WallClockTime: 72 Pre: 0.00404 Solve: 2.279 Post: 9.46e-06 Total: 2.283
Solve time per cell: 1.717e-05

==============================================================================
Step: 73 dt: 0.05 Time: 3.6 to 3.65
CFL: 0.0409325 (conv: 0.0406537 diff: 0 src: 0.00337861 )

Godunov:
  System                     Iters      Initial residual        Final residual
  ----------------------------------------------------------------------------
  MAC_projection                 8        0.002356853078       1.362950551e-15
  velocity_solve                 1       1.873807776e-09       1.099564884e-12
  Nodal_projection               6       0.0007597158805       6.769776728e-16

WallClockTime: 73 Pre: 0.00402 Solve: 2.283 Post: 9.66e-06 Total: 2.287
Solve time per cell: 1.721e-05

==============================================================================
Step: 74 dt: 0.05 Time: 3.65 to 3.7
CFL: 0.0409395 (conv: 0.0406608 diff: 0 src: 0.00337818 )

Godunov:
  System                     Iters      Initial residual        Final residual
  ----------------------------------------------------------------------------
  MAC_projection                 8        0.002355100617       1.478201242e-15
  velocity_solve                 1       1.890713364e-09       1.108446668e-12
  Nodal_projection               6       0.0007596403282       6.770585736e-16

WallClockTime: 74 Pre: 0.00408 Solve: 2.278 Post: 9.69e-06 Total: 2.282
Solve time per cell: 1.716e-05

==============================================================================
Step: 75 dt: 0.05 Time: 3.7 to 3.75
CFL: 0.0409464 (conv: 0.0406677 diff: 0 src: 0.00337778 )

Godunov:
  System                     Iters      Initial residual        Final residual
  ----------------------------------------------------------------------------
  MAC_projection                 8        0.002352952651        1.51213677e-15
  velocity_solve                 1       1.906526492e-09       1.117328452e-12
  Nodal_projection               6       0.0007595636189       6.771300825e-16

WallClockTime: 75 Pre: 0.00407 Solve: 2.278 Post: 1.01e-05 Total: 2.282
Solve time per cell: 1.716e-05

==============================================================================
Step: 76 dt: 0.05 Time: 3.75 to 3.8
CFL: 0.0409531 (conv: 0.0406745 diff: 0 src: 0.00337741 )

Godunov:
  System                     Iters      Initial residual        Final residual
  ----------------------------------------------------------------------------
  MAC_projection                 8         0.00235044632       1.508342062e-15
  velocity_solve                 1       1.921309334e-09       1.126210236e-12
  Nodal_projection               6       0.0007594865097       6.771684455e-16

WallClockTime: 76 Pre: 0.00409 Solve: 2.473 Post: 8.62e-06 Total: 2.477
Solve time per cell: 1.863e-05

==============================================================================
Step: 77 dt: 0.05 Time: 3.8 to 3.85
CFL: 0.0409596 (conv: 0.0406811 diff: 0 src: 0.00337708 )

Godunov:
  System                     Iters      Initial residual        Final residual
  ----------------------------------------------------------------------------
  MAC_projection                 8        0.002347603108       1.485682237e-15
  velocity_solve                 1       1.935049454e-09       1.131539307e-12
  Nodal_projection               6       0.0007594102546       6.772691456e-16

WallClockTime: 77 Pre: 0.00404 Solve: 2.281 Post: 9.96e-06 Total: 2.285
Solve time per cell: 1.719e-05

==============================================================================
Step: 78 dt: 0.05 Time: 3.85 to 3.9
CFL: 0.0409659 (conv: 0.0406876 diff: 0 src: 0.00337677 )

Godunov:
  System                     Iters      Initial residual        Final residual
  ----------------------------------------------------------------------------
  MAC_projection                 8        0.002344460648       1.513329392e-15
  velocity_solve                 1       1.947757511e-09       1.136868377e-12
  Nodal_projection               6       0.0007593355455        6.77323168e-16

WallClockTime: 78 Pre: 0.00406 Solve: 2.281 Post: 9.33e-06 Total: 2.285
Solve time per cell: 1.719e-05

==============================================================================
Step: 79 dt: 0.05 Time: 3.9 to 3.95
CFL: 0.0409721 (conv: 0.0406939 diff: 0 src: 0.00337654 )

Godunov:
  System                     Iters      Initial residual        Final residual
  ----------------------------------------------------------------------------
  MAC_projection                 8        0.002341049937       1.563311113e-15
  velocity_solve                 1       1.959447715e-09       1.143973805e-12
  Nodal_projection               6       0.0007592638937       6.773549392e-16

WallClockTime: 79 Pre: 0.00402 Solve: 2.308 Post: 9.37e-06 Total: 2.312
Solve time per cell: 1.739e-05

==============================================================================
Step: 80 dt: 0.05 Time: 3.95 to 4
CFL: 0.0409782 (conv: 0.0407 diff: 0 src: 0.00337631 )

Godunov:
  System                     Iters      Initial residual        Final residual
  ----------------------------------------------------------------------------
  MAC_projection                 8        0.002337403202       1.538916564e-15
  velocity_solve                 1       1.970141383e-09       1.149302875e-12
  Nodal_projection               6        0.000759194661       6.774328902e-16

WallClockTime: 80 Pre: 0.0041 Solve: 2.283 Post: 8.97e-06 Total: 2.287
Solve time per cell: 1.72e-05

==============================================================================
Step: 81 dt: 0.05 Time: 4 to 4.05
CFL: 0.040984 (conv: 0.0407059 diff: 0 src: 0.00337609 )

Godunov:
  System                     Iters      Initial residual        Final residual
  ----------------------------------------------------------------------------
  MAC_projection                 8        0.002333549649        1.60957944e-15
  velocity_solve                 1       1.979845621e-09       1.156408302e-12
  Nodal_projection               6       0.0007591293371       6.774986031e-16

WallClockTime: 81 Pre: 0.00593 Solve: 2.3 Post: 8.69e-06 Total: 2.306
Solve time per cell: 1.733e-05

==============================================================================
Step: 82 dt: 0.05 Time: 4.05 to 4.1
CFL: 0.0409897 (conv: 0.0407117 diff: 0 src: 0.00337597 )

Godunov:
  System                     Iters      Initial residual        Final residual
  ----------------------------------------------------------------------------
  MAC_projection                 8        0.002329515782       1.634895561e-15
  velocity_solve                 1        1.98860306e-09       1.159961016e-12
  Nodal_projection               6       0.0007590677243       6.775726614e-16

WallClockTime: 82 Pre: 0.00406 Solve: 2.3 Post: 9.71e-06 Total: 2.305
Solve time per cell: 1.733e-05

==============================================================================
Step: 83 dt: 0.05 Time: 4.1 to 4.15
CFL: 0.0409953 (conv: 0.0407173 diff: 0 src: 0.00337592 )

Godunov:
  System                     Iters      Initial residual        Final residual
  ----------------------------------------------------------------------------
  MAC_projection                 8        0.002325325061       1.657853542e-15
  velocity_solve                 1       1.996427912e-09        1.16351373e-12
  Nodal_projection               6       0.0007590100815       6.776474096e-16

WallClockTime: 83 Pre: 0.00407 Solve: 2.311 Post: 9.96e-06 Total: 2.315
Solve time per cell: 1.742e-05

==============================================================================
Step: 84 dt: 0.05 Time: 4.15 to 4.2
CFL: 0.0410007 (conv: 0.0407228 diff: 0 src: 0.00337591 )

Godunov:
  System                     Iters      Initial residual        Final residual
  ----------------------------------------------------------------------------
  MAC_projection                 8        0.002321001256       1.722119626e-15
  velocity_solve                 1       2.003410771e-09         1.1688428e-12
  Nodal_projection               6       0.0007589566297       6.776916133e-16

WallClockTime: 84 Pre: 0.00405 Solve: 2.278 Post: 1.01e-05 Total: 2.282
Solve time per cell: 1.716e-05

==============================================================================
Step: 85 dt: 0.05 Time: 4.2 to 4.25
CFL: 0.041006 (conv: 0.040728 diff: 0 src: 0.00337593 )

Godunov:
  System                     Iters      Initial residual        Final residual
  ----------------------------------------------------------------------------
  MAC_projection                 8        0.002316570073       1.805033987e-15
  velocity_solve                 1       2.009484135e-09       1.170619157e-12
  Nodal_projection               6       0.0007589063139       6.777557363e-16

WallClockTime: 85 Pre: 0.00407 Solve: 2.277 Post: 9.86e-06 Total: 2.281
Solve time per cell: 1.716e-05

==============================================================================
Step: 86 dt: 0.05 Time: 4.25 to 4.3
CFL: 0.0410111 (conv: 0.0407332 diff: 0 src: 0.00337599 )

Godunov:
  System                     Iters      Initial residual        Final residual
  ----------------------------------------------------------------------------
  MAC_projection                 8        0.002312035412       1.803787154e-15
  velocity_solve                 1       2.014651557e-09       1.174171871e-12
  Nodal_projection               6       0.0007588590467       6.778106156e-16

WallClockTime: 86 Pre: 0.00408 Solve: 2.285 Post: 1.03e-05 Total: 2.289
Solve time per cell: 1.721e-05

==============================================================================
Step: 87 dt: 0.05 Time: 4.3 to 4.35
CFL: 0.041016 (conv: 0.0407381 diff: 0 src: 0.00337608 )

Godunov:
  System                     Iters      Initial residual        Final residual
  ----------------------------------------------------------------------------
  MAC_projection                 8        0.002307419062       1.799450346e-15
  velocity_solve                 1       2.018921919e-09       1.175948228e-12
  Nodal_projection               6       0.0007588157859       6.778681369e-16

WallClockTime: 87 Pre: 0.00403 Solve: 2.284 Post: 9.77e-06 Total: 2.288
Solve time per cell: 1.721e-05

==============================================================================
Step: 88 dt: 0.05 Time: 4.35 to 4.4
CFL: 0.0410208 (conv: 0.0407429 diff: 0 src: 0.00337619 )

Godunov:
  System                     Iters      Initial residual        Final residual
  ----------------------------------------------------------------------------
  MAC_projection                 8        0.002302741863       1.862659332e-15
  velocity_solve                 1       2.022323642e-09       1.177724585e-12
  Nodal_projection               6       0.0007587775499       6.779576825e-16

WallClockTime: 88 Pre: 0.00412 Solve: 2.278 Post: 8.18e-06 Total: 2.282
Solve time per cell: 1.716e-05

==============================================================================
Step: 89 dt: 0.05 Time: 4.4 to 4.45
CFL: 0.0410254 (conv: 0.0407475 diff: 0 src: 0.00337632 )

Godunov:
  System                     Iters      Initial residual        Final residual
  ----------------------------------------------------------------------------
  MAC_projection                 8        0.002298022136       1.875642653e-15
  velocity_solve                 1       2.024881596e-09       1.179500941e-12
  Nodal_projection               6       0.0007587431507        6.78002318e-16

WallClockTime: 89 Pre: 0.00406 Solve: 2.479 Post: 9.46e-06 Total: 2.484
Solve time per cell: 1.868e-05

==============================================================================
Step: 90 dt: 0.05 Time: 4.45 to 4.5
CFL: 0.0410298 (conv: 0.0407519 diff: 0 src: 0.00337648 )

Godunov:
  System                     Iters      Initial residual        Final residual
  ----------------------------------------------------------------------------
  MAC_projection                 8        0.002293277243       1.944326861e-15
  velocity_solve                 1       2.026625978e-09       1.179500941e-12
  Nodal_projection               6       0.0007587114575       6.780408828e-16

WallClockTime: 90 Pre: 0.00405 Solve: 2.288 Post: 9.22e-06 Total: 2.292
Solve time per cell: 1.724e-05

==============================================================================
Step: 91 dt: 0.05 Time: 4.5 to 4.55
CFL: 0.0410341 (conv: 0.0407562 diff: 0 src: 0.00337666 )

Godunov:
  System                     Iters      Initial residual        Final residual
  ----------------------------------------------------------------------------
  MAC_projection                 8        0.002288524644       1.908602399e-15
  velocity_solve                 1       2.027585211e-09       1.179500941e-12
  Nodal_projection               6       0.0007586818726       6.780977019e-16

WallClockTime: 91 Pre: 0.00617 Solve: 2.285 Post: 9.65e-06 Total: 2.291
Solve time per cell: 1.722e-05

==============================================================================
Step: 92 dt: 0.05 Time: 4.55 to 4.6
CFL: 0.0410382 (conv: 0.0407603 diff: 0 src: 0.00337682 )

Godunov:
  System                     Iters      Initial residual        Final residual
  ----------------------------------------------------------------------------
  MAC_projection                 8        0.002283757533       1.867565347e-15
  velocity_solve                 1       2.027794821e-09       1.179500941e-12
  Nodal_projection               6       0.0007586526288       6.781742144e-16

WallClockTime: 92 Pre: 0.00406 Solve: 2.301 Post: 9.07e-06 Total: 2.305
Solve time per cell: 1.734e-05

==============================================================================
Step: 93 dt: 0.05 Time: 4.6 to 4.65
CFL: 0.0410421 (conv: 0.0407643 diff: 0 src: 0.003377 )

Godunov:
  System                     Iters      Initial residual        Final residual
  ----------------------------------------------------------------------------
  MAC_projection                 8        0.002278990803       1.817204156e-15
  velocity_solve                 1       2.027290336e-09       1.177724585e-12
  Nodal_projection               6       0.0007586252233       6.782204455e-16

WallClockTime: 93 Pre: 0.00407 Solve: 2.284 Post: 8.75e-06 Total: 2.288
Solve time per cell: 1.721e-05

==============================================================================
Step: 94 dt: 0.05 Time: 4.65 to 4.7
CFL: 0.0410459 (conv: 0.0407681 diff: 0 src: 0.00337718 )

Godunov:
  System                     Iters      Initial residual        Final residual
  ----------------------------------------------------------------------------
  MAC_projection                 8        0.002274241512       1.784461251e-15
  velocity_solve                 1       2.026128598e-09       1.177724585e-12
  Nodal_projection               6       0.0007585990385       6.782765052e-16

WallClockTime: 94 Pre: 0.00404 Solve: 2.282 Post: 1.06e-05 Total: 2.286
Solve time per cell: 1.72e-05

==============================================================================
Step: 95 dt: 0.05 Time: 4.7 to 4.75
CFL: 0.0410496 (conv: 0.0407717 diff: 0 src: 0.00337736 )

Godunov:
  System                     Iters      Initial residual        Final residual
  ----------------------------------------------------------------------------
  MAC_projection                 8        0.002269524318       1.867131666e-15
  velocity_solve                 1       2.024345136e-09       1.177724585e-12
  Nodal_projection               6        0.000758575548       6.783286672e-16

WallClockTime: 95 Pre: 0.00415 Solve: 2.324 Post: 9.26e-06 Total: 2.328
Solve time per cell: 1.751e-05

==============================================================================
Step: 96 dt: 0.05 Time: 4.75 to 4.8
CFL: 0.041053 (conv: 0.0407751 diff: 0 src: 0.00337753 )

Godunov:
  System                     Iters      Initial residual        Final residual
  ----------------------------------------------------------------------------
  MAC_projection                 8        0.002264853639       1.936303765e-15
  velocity_solve                 1       2.021966594e-09       1.175948228e-12
  Nodal_projection               6        0.000758553889       6.783817921e-16

WallClockTime: 96 Pre: 0.00408 Solve: 2.291 Post: 9.37e-06 Total: 2.295
Solve time per cell: 1.726e-05

==============================================================================
Step: 97 dt: 0.05 Time: 4.8 to 4.85
CFL: 0.0410563 (conv: 0.0407785 diff: 0 src: 0.0033777 )

Godunov:
  System                     Iters      Initial residual        Final residual
  ----------------------------------------------------------------------------
  MAC_projection                 8        0.002260242294       1.958665435e-15
  velocity_solve                 1       2.019032053e-09       1.174171871e-12
  Nodal_projection               6       0.0007585336951       6.784729581e-16

WallClockTime: 97 Pre: 0.00405 Solve: 2.286 Post: 9.17e-06 Total: 2.29
Solve time per cell: 1.722e-05

==============================================================================
Step: 98 dt: 0.05 Time: 4.85 to 4.9
CFL: 0.0410595 (conv: 0.0407816 diff: 0 src: 0.00337787 )

Godunov:
  System                     Iters      Initial residual        Final residual
  ----------------------------------------------------------------------------
  MAC_projection                 8        0.002255704332       1.984306816e-15
  velocity_solve                 1       2.015582368e-09       1.172395514e-12
  Nodal_projection               6        0.000758514817       6.784996661e-16

WallClockTime: 98 Pre: 0.00409 Solve: 2.28 Post: 9.24e-06 Total: 2.284
Solve time per cell: 1.718e-05

==============================================================================
Step: 99 dt: 0.05 Time: 4.9 to 4.95
CFL: 0.0410625 (conv: 0.0407846 diff: 0 src: 0.00337803 )

Godunov:
  System                     Iters      Initial residual        Final residual
  ----------------------------------------------------------------------------
  MAC_projection                 8        0.002251250784       2.129915168e-15
  velocity_solve                 1       2.011660172e-09       1.170619157e-12
  Nodal_projection               6       0.0007584974603       6.785560898e-16

WallClockTime: 99 Pre: 0.00408 Solve: 2.279 Post: 9.42e-06 Total: 2.283
Solve time per cell: 1.717e-05

==============================================================================
Step: 100 dt: 0.05 Time: 4.95 to 5
CFL: 0.0410654 (conv: 0.0407875 diff: 0 src: 0.0033782 )

Godunov:
  System                     Iters      Initial residual        Final residual
  ----------------------------------------------------------------------------
  MAC_projection                 8        0.002251295882       2.087306022e-15
  velocity_solve                 1       2.007295663e-09       1.167066443e-12
  Nodal_projection               6       0.0007584807858       6.786376266e-16

WallClockTime: 100 Pre: 0.0041 Solve: 2.278 Post: 0.027 Total: 2.309
Solve time per cell: 1.716e-05

==============================================================================
Step: 101 dt: 0.05 Time: 5 to 5.05
CFL: 0.0410681 (conv: 0.0407902 diff: 0 src: 0.00337836 )

Godunov:
  System                     Iters      Initial residual        Final residual
  ----------------------------------------------------------------------------
  MAC_projection                 8         0.00225121466       2.149457912e-15
  velocity_solve                 1        2.00242134e-09        1.16351373e-12
  Nodal_projection               6       0.0007584650487       6.786864973e-16

WallClockTime: 101 Pre: 0.00409 Solve: 2.279 Post: 8.57e-06 Total: 2.283
Solve time per cell: 1.717e-05

==============================================================================
Step: 102 dt: 0.05 Time: 5.05 to 5.1
CFL: 0.0410707 (conv: 0.0407928 diff: 0 src: 0.0033785 )

Godunov:
  System                     Iters      Initial residual        Final residual
  ----------------------------------------------------------------------------
  MAC_projection                 8        0.002250763318       2.205524717e-15
  velocity_solve                 1        1.99722372e-09       1.161737373e-12
  Nodal_projection               6       0.0007584501921       6.787128926e-16

WallClockTime: 102 Pre: 0.00415 Solve: 2.452 Post: 9.31e-06 Total: 2.456
Solve time per cell: 1.847e-05

==============================================================================
Step: 103 dt: 0.05 Time: 5.1 to 5.15
CFL: 0.0410732 (conv: 0.0407952 diff: 0 src: 0.00337866 )

Godunov:
  System                     Iters      Initial residual        Final residual
  ----------------------------------------------------------------------------
  MAC_projection                 8        0.002249968041       2.254083422e-15
  velocity_solve                 1       1.991683263e-09       1.159961016e-12
  Nodal_projection               6       0.0007584350983       6.788040165e-16

WallClockTime: 103 Pre: 0.00402 Solve: 2.283 Post: 8.52e-06 Total: 2.287
Solve time per cell: 1.72e-05

==============================================================================
Step: 104 dt: 0.05 Time: 5.15 to 5.2
CFL: 0.0410755 (conv: 0.0407975 diff: 0 src: 0.00337881 )

Godunov:
  System                     Iters      Initial residual        Final residual
  ----------------------------------------------------------------------------
  MAC_projection                 8        0.002248854469       2.374836439e-15
  velocity_solve                 1       1.985837272e-09       1.156408302e-12
  Nodal_projection               6       0.0007584199392       6.788280436e-16

WallClockTime: 104 Pre: 0.00415 Solve: 2.278 Post: 9.31e-06 Total: 2.282
Solve time per cell: 1.717e-05

==============================================================================
Step: 105 dt: 0.05 Time: 5.2 to 5.25
CFL: 0.0410807 (conv: 0.0408028 diff: 0 src: 0.00337899 )

Godunov:
  System                     Iters      Initial residual        Final residual
  ----------------------------------------------------------------------------
  MAC_projection                 8        0.002247442204        2.36057918e-15
  velocity_solve                 1       1.979723052e-09       1.151079232e-12
  Nodal_projection               6       0.0007584035565       6.788976277e-16

WallClockTime: 105 Pre: 0.00403 Solve: 2.31 Post: 8.95e-06 Total: 2.314
Solve time per cell: 1.741e-05

==============================================================================
Step: 106 dt: 0.05 Time: 5.25 to 5.3
CFL: 0.0410867 (conv: 0.0408088 diff: 0 src: 0.00337908 )

Godunov:
  System                     Iters      Initial residual        Final residual
  ----------------------------------------------------------------------------
  MAC_projection                 8        0.002245751853       2.386091812e-15
  velocity_solve                 1       1.973365471e-09       1.147526518e-12
  Nodal_projection               6       0.0007583870663       6.789587464e-16

WallClockTime: 106 Pre: 0.00405 Solve: 2.279 Post: 8.89e-06 Total: 2.283
Solve time per cell: 1.717e-05

==============================================================================
Step: 107 dt: 0.05 Time: 5.3 to 5.35
CFL: 0.0410926 (conv: 0.0408147 diff: 0 src: 0.00337923 )

Godunov:
  System                     Iters      Initial residual        Final residual
  ----------------------------------------------------------------------------
  MAC_projection                 8        0.002243853563       2.387684234e-15
  velocity_solve                 1       1.966787622e-09       1.145750161e-12
  Nodal_projection               6         0.00075837045       6.789902752e-16

WallClockTime: 107 Pre: 0.00407 Solve: 2.28 Post: 1.01e-05 Total: 2.284
Solve time per cell: 1.718e-05

==============================================================================
Step: 108 dt: 0.05 Time: 5.35 to 5.4
CFL: 0.0410983 (conv: 0.0408204 diff: 0 src: 0.00337938 )

Godunov:
  System                     Iters      Initial residual        Final residual
  ----------------------------------------------------------------------------
  MAC_projection                 8        0.002241710015       2.403730427e-15
  velocity_solve                 1       1.960026808e-09       1.140421091e-12
  Nodal_projection               6       0.0007583532801       6.790975879e-16

WallClockTime: 108 Pre: 0.00403 Solve: 2.302 Post: 9.04e-06 Total: 2.306
Solve time per cell: 1.735e-05

==============================================================================
Step: 109 dt: 0.05 Time: 5.4 to 5.45
CFL: 0.0411038 (conv: 0.0408259 diff: 0 src: 0.00337953 )

Godunov:
  System                     Iters      Initial residual        Final residual
  ----------------------------------------------------------------------------
  MAC_projection                 8        0.002239275989       2.377438524e-15
  velocity_solve                 1       1.953115003e-09       1.136868377e-12
  Nodal_projection               6       0.0007583359701        6.79132743e-16

WallClockTime: 109 Pre: 0.00405 Solve: 2.278 Post: 9.18e-06 Total: 2.282
Solve time per cell: 1.716e-05

==============================================================================
Step: 110 dt: 0.05 Time: 5.45 to 5.5
CFL: 0.0411091 (conv: 0.0408313 diff: 0 src: 0.00337966 )

Godunov:
  System                     Iters      Initial residual        Final residual
  ----------------------------------------------------------------------------
  MAC_projection                 8        0.002236644999       2.373216912e-15
  velocity_solve                 1       1.950946071e-09       1.133315664e-12
  Nodal_projection               6       0.0007583196557       6.791570175e-16

WallClockTime: 110 Pre: 0.00406 Solve: 2.278 Post: 9.57e-06 Total: 2.282
Solve time per cell: 1.716e-05

==============================================================================
Step: 111 dt: 0.05 Time: 5.5 to 5.55
CFL: 0.0411143 (conv: 0.0408364 diff: 0 src: 0.00337978 )

Godunov:
  System                     Iters      Initial residual        Final residual
  ----------------------------------------------------------------------------
  MAC_projection                 8        0.002233822275       2.407741975e-15
  velocity_solve                 1       1.958369467e-09       1.138644734e-12
  Nodal_projection               6       0.0007583054908       6.792252723e-16

WallClockTime: 111 Pre: 0.00634 Solve: 2.287 Post: 9.91e-06 Total: 2.294
Solve time per cell: 1.724e-05

==============================================================================
Step: 112 dt: 0.05 Time: 5.55 to 5.6
CFL: 0.0411192 (conv: 0.0408414 diff: 0 src: 0.00337989 )

Godunov:
  System                     Iters      Initial residual        Final residual
  ----------------------------------------------------------------------------
  MAC_projection                 8        0.002230814776       2.372776454e-15
  velocity_solve                 1        1.96496508e-09       1.142197448e-12
  Nodal_projection               6       0.0007582922946       6.792724886e-16

WallClockTime: 112 Pre: 0.00405 Solve: 2.312 Post: 9.01e-06 Total: 2.316
Solve time per cell: 1.742e-05

[...]
  ----------------------------------------------------------------------------
  MAC_projection                 8        0.002235901739       5.285687185e-15
  velocity_solve                 1       1.824885132e-09       1.072919531e-12
  Nodal_projection               6        0.000759469865       6.857116364e-16

WallClockTime: 677 Pre: 0.00435 Solve: 2.284 Post: 1.03e-05 Total: 2.288
Solve time per cell: 1.721e-05

==============================================================================
Step: 678 dt: 0.05 Time: 33.85 to 33.9
CFL: 0.0408375 (conv: 0.0405625 diff: 0 src: 0.00335098 )

Godunov:
  System                     Iters      Initial residual        Final residual
  ----------------------------------------------------------------------------
  MAC_projection                 8        0.002235888321        5.24860747e-15
  velocity_solve                 1       1.825267049e-09       1.072919531e-12
  Nodal_projection               6       0.0007594997211       6.856742412e-16

WallClockTime: 678 Pre: 0.00409 Solve: 2.28 Post: 1.06e-05 Total: 2.284
Solve time per cell: 1.718e-05

==============================================================================
Step: 679 dt: 0.05 Time: 33.9 to 33.95
CFL: 0.0408371 (conv: 0.0405623 diff: 0 src: 0.00335015 )

Godunov:
  System                     Iters      Initial residual        Final residual
  ----------------------------------------------------------------------------
  MAC_projection                 8        0.002235871604       5.223855474e-15
  velocity_solve                 1       1.825672058e-09       1.072919531e-12
  Nodal_projection               6       0.0007595302559       6.856747623e-16

WallClockTime: 679 Pre: 0.00411 Solve: 2.278 Post: 9.59e-06 Total: 2.282
Solve time per cell: 1.716e-05

==============================================================================
Step: 680 dt: 0.05 Time: 33.95 to 34
CFL: 0.0408368 (conv: 0.0405621 diff: 0 src: 0.0033493 )

Godunov:
  System                     Iters      Initial residual        Final residual
  ----------------------------------------------------------------------------
  MAC_projection                 8        0.002235851701       5.196411606e-15
  velocity_solve                 1       1.826105489e-09       1.072919531e-12
  Nodal_projection               6       0.0007595615632        6.85693172e-16

WallClockTime: 680 Pre: 0.0041 Solve: 2.299 Post: 1.09e-05 Total: 2.304
Solve time per cell: 1.733e-05

==============================================================================
Step: 681 dt: 0.05 Time: 34 to 34.05
CFL: 0.0408364 (conv: 0.0405618 diff: 0 src: 0.00334844 )

Godunov:
  System                     Iters      Initial residual        Final residual
  ----------------------------------------------------------------------------
  MAC_projection                 8        0.002235828723       5.193882366e-15
  velocity_solve                 1       1.826560236e-09       1.074695888e-12
  Nodal_projection               6       0.0007595931438       6.856941134e-16

WallClockTime: 681 Pre: 0.00608 Solve: 2.308 Post: 9.45e-06 Total: 2.314
Solve time per cell: 1.739e-05

==============================================================================
Step: 682 dt: 0.05 Time: 34.05 to 34.1
CFL: 0.040836 (conv: 0.0405616 diff: 0 src: 0.00334756 )

Godunov:
  System                     Iters      Initial residual        Final residual
  ----------------------------------------------------------------------------
  MAC_projection                 8        0.002235802806       5.182347471e-15
  velocity_solve                 1       1.827038076e-09       1.072919531e-12
  Nodal_projection               6       0.0007596250801       6.857091068e-16

WallClockTime: 682 Pre: 0.00406 Solve: 2.277 Post: 1.05e-05 Total: 2.281
Solve time per cell: 1.716e-05

==============================================================================
Step: 683 dt: 0.05 Time: 34.1 to 34.15
CFL: 0.0408357 (conv: 0.0405614 diff: 0 src: 0.00334668 )

Godunov:
  System                     Iters      Initial residual        Final residual
  ----------------------------------------------------------------------------
  MAC_projection                 8        0.002235774076       5.169882534e-15
  velocity_solve                 1       1.827531904e-09       1.072919531e-12
  Nodal_projection               6       0.0007596572234       6.857226693e-16

WallClockTime: 683 Pre: 0.0041 Solve: 2.278 Post: 9.85e-06 Total: 2.282
Solve time per cell: 1.716e-05

==============================================================================
Step: 684 dt: 0.05 Time: 34.15 to 34.2
CFL: 0.0408353 (conv: 0.0405612 diff: 0 src: 0.00334594 )

Godunov:
  System                     Iters      Initial residual        Final residual
  ----------------------------------------------------------------------------
  MAC_projection                 8         0.00223574267       5.172596428e-15
  velocity_solve                 1       1.828048823e-09       1.074695888e-12
  Nodal_projection               6       0.0007596894324       6.856884472e-16

WallClockTime: 684 Pre: 0.00409 Solve: 2.3 Post: 1.03e-05 Total: 2.304
Solve time per cell: 1.733e-05

==============================================================================
Step: 685 dt: 0.05 Time: 34.2 to 34.25
CFL: 0.040835 (conv: 0.0405609 diff: 0 src: 0.00334556 )

Godunov:
  System                     Iters      Initial residual        Final residual
  ----------------------------------------------------------------------------
  MAC_projection                 8        0.002235708723       5.167124595e-15
  velocity_solve                 1        1.82858173e-09       1.074695888e-12
  Nodal_projection               6        0.000759721567       6.857059205e-16

WallClockTime: 685 Pre: 0.00407 Solve: 2.503 Post: 9.28e-06 Total: 2.507
Solve time per cell: 1.886e-05

==============================================================================
Step: 686 dt: 0.05 Time: 34.25 to 34.3
CFL: 0.0408347 (conv: 0.0405607 diff: 0 src: 0.00334515 )

Godunov:
  System                     Iters      Initial residual        Final residual
  ----------------------------------------------------------------------------
  MAC_projection                 8        0.002235672379       5.171208988e-15
  velocity_solve                 1       1.829132401e-09       1.074695888e-12
  Nodal_projection               6       0.0007597534857       6.857213839e-16

WallClockTime: 686 Pre: 0.00413 Solve: 2.278 Post: 9.3e-06 Total: 2.282
Solve time per cell: 1.717e-05

==============================================================================
Step: 687 dt: 0.05 Time: 34.3 to 34.35
CFL: 0.0408344 (conv: 0.0405605 diff: 0 src: 0.0033447 )

Godunov:
  System                     Iters      Initial residual        Final residual
  ----------------------------------------------------------------------------
  MAC_projection                 8        0.002235633783        5.15965207e-15
  velocity_solve                 1        1.82969373e-09       1.074695888e-12
  Nodal_projection               6        0.000759785062       6.856781819e-16

WallClockTime: 687 Pre: 0.00408 Solve: 2.281 Post: 9.79e-06 Total: 2.285
Solve time per cell: 1.719e-05

==============================================================================
Step: 688 dt: 0.05 Time: 34.35 to 34.4
CFL: 0.0408341 (conv: 0.0405602 diff: 0 src: 0.00334421 )

Godunov:
  System                     Iters      Initial residual        Final residual
  ----------------------------------------------------------------------------
  MAC_projection                 8        0.002235593086         5.1573312e-15
  velocity_solve                 1       1.830269269e-09       1.076472245e-12
  Nodal_projection               6       0.0007598161721       6.856488633e-16

WallClockTime: 688 Pre: 0.00411 Solve: 2.279 Post: 9.27e-06 Total: 2.283
Solve time per cell: 1.717e-05

==============================================================================
Step: 689 dt: 0.05 Time: 34.4 to 34.45
CFL: 0.0408338 (conv: 0.04056 diff: 0 src: 0.00334369 )

Godunov:
  System                     Iters      Initial residual        Final residual
  ----------------------------------------------------------------------------
  MAC_projection                 8         0.00223555044       5.134107251e-15
  velocity_solve                 1       1.830857244e-09       1.076472245e-12
  Nodal_projection               6        0.000759846713       6.856914548e-16

WallClockTime: 689 Pre: 0.00408 Solve: 2.284 Post: 9.95e-06 Total: 2.288
Solve time per cell: 1.721e-05

==============================================================================
Step: 690 dt: 0.05 Time: 34.45 to 34.5
CFL: 0.0408335 (conv: 0.0405598 diff: 0 src: 0.00334313 )

Godunov:
  System                     Iters      Initial residual        Final residual
  ----------------------------------------------------------------------------
  MAC_projection                 8        0.002235506015       5.132674071e-15
  velocity_solve                 1       1.831452323e-09       1.074695888e-12
  Nodal_projection               6       0.0007598766054       6.856882652e-16

WallClockTime: 690 Pre: 0.00415 Solve: 2.288 Post: 1e-05 Total: 2.292
Solve time per cell: 1.724e-05

==============================================================================
Step: 691 dt: 0.05 Time: 34.5 to 34.55
CFL: 0.0408332 (conv: 0.0405595 diff: 0 src: 0.00334254 )

Godunov:
  System                     Iters      Initial residual        Final residual
  ----------------------------------------------------------------------------
  MAC_projection                 8         0.00223545998       5.123051777e-15
  velocity_solve                 1       1.832056284e-09       1.076472245e-12
  Nodal_projection               6       0.0007599057952       6.856926939e-16

WallClockTime: 691 Pre: 0.00589 Solve: 2.279 Post: 9.71e-06 Total: 2.285
Solve time per cell: 1.717e-05

==============================================================================
Step: 692 dt: 0.05 Time: 34.55 to 34.6
CFL: 0.0408328 (conv: 0.0405593 diff: 0 src: 0.00334192 )

Godunov:
  System                     Iters      Initial residual        Final residual
  ----------------------------------------------------------------------------
  MAC_projection                 8        0.002235412507       5.122640119e-15
  velocity_solve                 1       1.832663798e-09       1.076472245e-12
  Nodal_projection               6       0.0007599342585       6.856853155e-16

WallClockTime: 692 Pre: 0.00403 Solve: 2.278 Post: 9.41e-06 Total: 2.282
Solve time per cell: 1.716e-05

==============================================================================
Step: 693 dt: 0.05 Time: 34.6 to 34.65
CFL: 0.0408325 (conv: 0.0405591 diff: 0 src: 0.00334127 )

Godunov:
  System                     Iters      Initial residual        Final residual
  ----------------------------------------------------------------------------
  MAC_projection                 8        0.002235363776       5.152431961e-15
  velocity_solve                 1       1.833278418e-09       1.078248602e-12
  Nodal_projection               6       0.0007599620135       6.856886192e-16

WallClockTime: 693 Pre: 0.00405 Solve: 2.335 Post: 1.02e-05 Total: 2.339
Solve time per cell: 1.759e-05

==============================================================================
Step: 694 dt: 0.05 Time: 34.65 to 34.7
CFL: 0.0408322 (conv: 0.0405589 diff: 0 src: 0.00334059 )

Godunov:
  System                     Iters      Initial residual        Final residual
  ----------------------------------------------------------------------------
  MAC_projection                 8        0.002235313989        5.13490685e-15
  velocity_solve                 1       1.833894814e-09       1.078248602e-12
  Nodal_projection               6       0.0007599890561       6.857036723e-16

WallClockTime: 694 Pre: 0.00449 Solve: 2.304 Post: 1.12e-05 Total: 2.308
Solve time per cell: 1.736e-05

==============================================================================
Step: 695 dt: 0.05 Time: 34.7 to 34.75
CFL: 0.0408318 (conv: 0.0405586 diff: 0 src: 0.0033399 )

Godunov:
  System                     Iters      Initial residual        Final residual
  ----------------------------------------------------------------------------
  MAC_projection                 8        0.002235263254       5.115060868e-15
  velocity_solve                 1        1.83451121e-09       1.078248602e-12
  Nodal_projection               6       0.0007600154547       6.856903298e-16

WallClockTime: 695 Pre: 0.00404 Solve: 2.279 Post: 9.71e-06 Total: 2.283
Solve time per cell: 1.717e-05

==============================================================================
Step: 696 dt: 0.05 Time: 34.75 to 34.8
CFL: 0.0408315 (conv: 0.0405584 diff: 0 src: 0.00333918 )

Godunov:
  System                     Iters      Initial residual        Final residual
  ----------------------------------------------------------------------------
  MAC_projection                 8        0.002235211858       5.129321515e-15
  velocity_solve                 1       1.835131158e-09       1.078248602e-12
  Nodal_projection               6       0.0007600412541       6.856676734e-16

WallClockTime: 696 Pre: 0.00402 Solve: 2.284 Post: 9.25e-06 Total: 2.288
Solve time per cell: 1.721e-05

==============================================================================
Step: 697 dt: 0.05 Time: 34.8 to 34.85
CFL: 0.0408311 (conv: 0.0405582 diff: 0 src: 0.00333845 )

Godunov:
  System                     Iters      Initial residual        Final residual
  ----------------------------------------------------------------------------
  MAC_projection                 8        0.002235159999       5.124600153e-15
  velocity_solve                 1       1.835742225e-09       1.078248602e-12
  Nodal_projection               6        0.000760066515       6.856728565e-16

WallClockTime: 697 Pre: 0.0041 Solve: 2.277 Post: 1.09e-05 Total: 2.281
Solve time per cell: 1.716e-05

==============================================================================
Step: 698 dt: 0.05 Time: 34.85 to 34.9
CFL: 0.0408308 (conv: 0.0405579 diff: 0 src: 0.00333771 )

Godunov:
  System                     Iters      Initial residual        Final residual
  ----------------------------------------------------------------------------
  MAC_projection                 8         0.00223510788       5.123600654e-15
  velocity_solve                 1       1.836353292e-09       1.080024958e-12
  Nodal_projection               6       0.0007600912976       6.856844916e-16

WallClockTime: 698 Pre: 0.00414 Solve: 2.499 Post: 1.05e-05 Total: 2.503
Solve time per cell: 1.883e-05

==============================================================================
Step: 699 dt: 0.05 Time: 34.9 to 34.95
CFL: 0.0408304 (conv: 0.0405577 diff: 0 src: 0.00333697 )

Godunov:
  System                     Iters      Initial residual        Final residual
  ----------------------------------------------------------------------------
  MAC_projection                 8        0.002235055708       5.127884947e-15
  velocity_solve                 1       1.836957253e-09       1.080024958e-12
  Nodal_projection               6       0.0007601156647       6.857224873e-16

WallClockTime: 699 Pre: 0.00425 Solve: 2.281 Post: 1.08e-05 Total: 2.285
Solve time per cell: 1.719e-05

==============================================================================
Step: 700 dt: 0.05 Time: 34.95 to 35
CFL: 0.0408301 (conv: 0.0405575 diff: 0 src: 0.00333622 )

Godunov:
  System                     Iters      Initial residual        Final residual
  ----------------------------------------------------------------------------
  MAC_projection                 8         0.00223500371       5.120458162e-15
  velocity_solve                 1       1.837555885e-09       1.080024958e-12
  Nodal_projection               6       0.0007601396607       6.856878433e-16

WallClockTime: 700 Pre: 0.00431 Solve: 2.279 Post: 0.024 Total: 2.308
Solve time per cell: 1.717e-05

==============================================================================
Step: 701 dt: 0.05 Time: 35 to 35.05
CFL: 0.0408298 (conv: 0.0405572 diff: 0 src: 0.00333595 )

Godunov:
  System                     Iters      Initial residual        Final residual
  ----------------------------------------------------------------------------
  MAC_projection                 8        0.002234952106       5.098940137e-15
  velocity_solve                 1       1.838143859e-09       1.080024958e-12
  Nodal_projection               6       0.0007601633546       6.856854925e-16

WallClockTime: 701 Pre: 0.00403 Solve: 2.277 Post: 9.83e-06 Total: 2.281
Solve time per cell: 1.716e-05

==============================================================================
Step: 702 dt: 0.05 Time: 35.05 to 35.1
CFL: 0.0408296 (conv: 0.040557 diff: 0 src: 0.00333615 )

Godunov:
  System                     Iters      Initial residual        Final residual
  ----------------------------------------------------------------------------
  MAC_projection                 8        0.002234901117       5.094757488e-15
  velocity_solve                 1       1.838724728e-09       1.080024958e-12
  Nodal_projection               6       0.0007601867636       6.857065459e-16

WallClockTime: 702 Pre: 0.00404 Solve: 2.276 Post: 9.94e-06 Total: 2.28
Solve time per cell: 1.715e-05

==============================================================================
Step: 703 dt: 0.05 Time: 35.1 to 35.15
CFL: 0.0408294 (conv: 0.0405568 diff: 0 src: 0.00333635 )

Godunov:
  System                     Iters      Initial residual        Final residual
  ----------------------------------------------------------------------------
  MAC_projection                 8        0.002234850969        5.11358703e-15
  velocity_solve                 1        1.83928961e-09       1.080024958e-12
  Nodal_projection               6       0.0007602098987       6.856690829e-16

WallClockTime: 703 Pre: 0.00407 Solve: 2.28 Post: 9.46e-06 Total: 2.284
Solve time per cell: 1.718e-05

==============================================================================
Step: 704 dt: 0.05 Time: 35.15 to 35.2
CFL: 0.0408292 (conv: 0.0405565 diff: 0 src: 0.00333655 )

Godunov:
  System                     Iters      Initial residual        Final residual
  ----------------------------------------------------------------------------
  MAC_projection                 8        0.002234801882       5.095167452e-15
  velocity_solve                 1       1.839842056e-09       1.081801315e-12
  Nodal_projection               6       0.0007602327947       6.856634117e-16

WallClockTime: 704 Pre: 0.00403 Solve: 2.282 Post: 8.92e-06 Total: 2.286
Solve time per cell: 1.719e-05

==============================================================================
Step: 705 dt: 0.05 Time: 35.2 to 35.25
CFL: 0.040829 (conv: 0.0405563 diff: 0 src: 0.00333673 )

Godunov:
  System                     Iters      Initial residual        Final residual
  ----------------------------------------------------------------------------
  MAC_projection                 8        0.002234754075        5.09548763e-15
  velocity_solve                 1       1.840380293e-09       1.080024958e-12
  Nodal_projection               6       0.0007602554179       6.857067808e-16

WallClockTime: 705 Pre: 0.00407 Solve: 2.276 Post: 1e-05 Total: 2.28
Solve time per cell: 1.715e-05

==============================================================================
Step: 706 dt: 0.05 Time: 35.25 to 35.3
CFL: 0.0408288 (conv: 0.0405561 diff: 0 src: 0.00333691 )

Godunov:
  System                     Iters      Initial residual        Final residual
  ----------------------------------------------------------------------------
