==============================================================================
                AMR-Wind (https://github.com/exawind/amr-wind)

  AMR-Wind version :: caebcd1-DIRTY
  AMR-Wind Git SHA :: caebcd1f2841cf780ea3dcd566f05dbc21bc476f-DIRTY
  AMReX version    :: 23.04-23-g2f47d132d71c

  Exec. time       :: Fri Aug  4 14:41:00 2023
  Build time       :: Jul 18 2023 12:15:26
  C++ compiler     :: GNU 9.3.0

  MPI              :: ON    (Num. ranks = 360)
  GPU              :: OFF
  OpenMP           :: OFF

  Enabled third-party libraries: 
    NetCDF    4.9.2
    HYPRE     2.28.0
    OpenFAST  

           This software is released under the BSD 3-clause license.           
 See https://github.com/Exawind/amr-wind/blob/development/LICENSE for details. 
------------------------------------------------------------------------------

MPI initialized with 360 MPI processes
MPI initialized with thread support level 0
AMReX (23.04-23-g2f47d132d71c) initialized
Initializing AMR-Wind ...
Initializing boundary conditions for velocity_mueff
Initializing boundary conditions for velocity
Initializing boundary conditions for density
Initializing boundary conditions for p
Initializing boundary conditions for velocity_src_term
Initializing boundary conditions for gp
Creating PDESystem instance: ICNS-Godunov
Creating Physics instance: FreeStream
Creating Physics instance: Actuator
Creating TurbulenceModel instance: Laminar-ConstTransport
Creating RefinementCriteria instance: GeometryRefinement
(-2400 -720 -480)
(2400 -720 -480)
(2400 720 -480)
(-2400 720 -480)
(-2400 -720 480)
(2400 -720 480)
(2400 720 480)
(-2400 720 480)
Creating GeometryType instance: box
Creating RefinementCriteria instance: GeometryRefinement
(-600 -600 -288)
(600 -600 -288)
(600 600 -288)
(-600 600 -288)
(-600 -600 288)
(600 -600 288)
(600 600 288)
(-600 600 288)
Creating GeometryType instance: box
Creating PostProcessBase instance: Sampling
Initializing I/O manager
Creating UDF instance: ConstValue
Creating UDF instance: ConstValue
Creating ActuatorModel instance: JoukowskyDisk
Creating mesh... done
Grid summary: 
  Level 0   576 grids  2359296 cells  100 % of domain
            smallest grid: 16 x 16 x 16  biggest grid: 16 x 16 x 16
  Level 1   560 grids  8888320 cells  47.09201389 % of domain
            smallest grid: 16 x 32 x 16  biggest grid: 32 x 32 x 16
  Level 2   512 grids  8388608 cells  5.555555556 % of domain
            smallest grid: 32 x 32 x 16  biggest grid: 32 x 32 x 16

For mflux_type, default is upwind
Creating MomentumSource instance: ActuatorForcing
Creating SamplerBase instance: PlaneSampler
Begin initial projection
  Nodal_projection               0       1.665334537e-16       1.665334537e-16
Completed initial projection

Begin initial pressure iterations. Num. iters = 3
dt: 0.1
CFL: 0.16 (conv: 0.16 diff: 0 src: 0 )

Godunov:
  System                     Iters      Initial residual        Final residual
  ----------------------------------------------------------------------------
  MAC_projection                 0       1.088018564e-16       1.088018564e-16
  velocity_solve                 0                     0                     0
  Nodal_projection               0                     0                     0

Godunov:
  System                     Iters      Initial residual        Final residual
  ----------------------------------------------------------------------------
  MAC_projection                 0       1.088018564e-16       1.088018564e-16
  velocity_solve                 0                     0                     0
  Nodal_projection               0                     0                     0

Godunov:
  System                     Iters      Initial residual        Final residual
  ----------------------------------------------------------------------------
  MAC_projection                 0       1.088018564e-16       1.088018564e-16
  velocity_solve                 0                     0                     0
  Nodal_projection               0                     0                     0
Completed initial pressure iterations

Writing plot file       plt00000 at time 0
Initialization successful. Time elapsed = 1.544331221

Begin simulation: 
  Run till 600 seconds 
  Fixed timestepping with dt = 0.1; max. CFL from inputs = 0.5

==============================================================================
Step: 1 dt: 0.1 Time: 0 to 0.1
CFL: 0.16 (conv: 0.16 diff: 0 src: 0 )

Godunov:
  System                     Iters      Initial residual        Final residual
  ----------------------------------------------------------------------------
  MAC_projection                 8         0.03409825087       2.078782626e-13
  velocity_solve                 1       1.407562955e-08       6.172840017e-12
  Nodal_projection               7         0.05131676598       1.114182497e-13

WallClockTime: 1 Pre: 0.00848 Solve: 1.205 Post: 9.5e-06 Total: 1.213
Solve time per cell: 2.209e-05

==============================================================================
Step: 2 dt: 0.1 Time: 0.1 to 0.2
CFL: 0.193998 (conv: 0.161449 diff: 0 src: 0.0794627 )

Godunov:
  System                     Iters      Initial residual        Final residual
  ----------------------------------------------------------------------------
  MAC_projection                 8         0.01105584551       1.125933114e-14
  velocity_solve                 1       2.152570922e-08       9.915623878e-12
  Nodal_projection               7         0.05526199798       1.111941824e-13

WallClockTime: 2 Pre: 0.00436 Solve: 1.21 Post: 9.06e-06 Total: 1.215
Solve time per cell: 2.219e-05

==============================================================================
Step: 3 dt: 0.1 Time: 0.2 to 0.3
CFL: 0.17402 (conv: 0.162895 diff: 0 src: 0.0440011 )

Godunov:
  System                     Iters      Initial residual        Final residual
  ----------------------------------------------------------------------------
  MAC_projection                 8         0.01499499121       1.329275232e-14
  velocity_solve                 1       3.192114661e-08       1.474198541e-11
  Nodal_projection               7         0.05535202586       1.111933896e-13

WallClockTime: 3 Pre: 0.00362 Solve: 1.268 Post: 7.08e-06 Total: 1.272
Solve time per cell: 2.325e-05

==============================================================================
Step: 4 dt: 0.1 Time: 0.3 to 0.4
CFL: 0.175308 (conv: 0.164351 diff: 0 src: 0.0438274 )

Godunov:
  System                     Iters      Initial residual        Final residual
  ----------------------------------------------------------------------------
  MAC_projection                 8         0.01816423374       1.353214416e-14
  velocity_solve                 1        4.23621529e-08       1.952393802e-11
  Nodal_projection               7         0.05532376909       1.111976756e-13

WallClockTime: 4 Pre: 0.00374 Solve: 1.208 Post: 7.47e-06 Total: 1.212
Solve time per cell: 2.214e-05

==============================================================================
Step: 5 dt: 0.1 Time: 0.4 to 0.5
CFL: 0.176621 (conv: 0.165797 diff: 0 src: 0.043725 )

Godunov:
  System                     Iters      Initial residual        Final residual
  ----------------------------------------------------------------------------
  MAC_projection                 8         0.02061178335       1.388342566e-14
  velocity_solve                 1       5.244856638e-08       2.411759681e-11
  Nodal_projection               7         0.05531662839       1.112038284e-13

WallClockTime: 5 Pre: 0.0318 Solve: 1.224 Post: 8.48e-06 Total: 1.256
Solve time per cell: 2.245e-05

==============================================================================
Step: 6 dt: 0.1 Time: 0.5 to 0.6
CFL: 0.177909 (conv: 0.167206 diff: 0 src: 0.0436362 )

Godunov:
  System                     Iters      Initial residual        Final residual
  ----------------------------------------------------------------------------
  MAC_projection                 8         0.02259938892        1.43947354e-14
  velocity_solve                 1       6.192945179e-08       2.841282765e-11
  Nodal_projection               7         0.05531113264       1.112116956e-13

WallClockTime: 6 Pre: 0.00398 Solve: 1.218 Post: 9.59e-06 Total: 1.222
Solve time per cell: 2.233e-05

==============================================================================
Step: 7 dt: 0.1 Time: 0.6 to 0.7
CFL: 0.179145 (conv: 0.168557 diff: 0 src: 0.0435526 )

Godunov:
  System                     Iters      Initial residual        Final residual
  ----------------------------------------------------------------------------
  MAC_projection                 8          0.0242433662       1.438649547e-14
  velocity_solve                 1       7.067338537e-08        3.23367999e-11
  Nodal_projection               7         0.05530032377       1.112212366e-13

WallClockTime: 7 Pre: 0.00355 Solve: 1.204 Post: 9.18e-06 Total: 1.207
Solve time per cell: 2.207e-05

==============================================================================
Step: 8 dt: 0.1 Time: 0.7 to 0.8
CFL: 0.180317 (conv: 0.169837 diff: 0 src: 0.0434716 )

Godunov:
  System                     Iters      Initial residual        Final residual
  ----------------------------------------------------------------------------
  MAC_projection                 8          0.0258442481       1.517362624e-14
  velocity_solve                 1       7.850012906e-08       3.581135388e-11
  Nodal_projection               7         0.05528643725       1.112324039e-13

WallClockTime: 8 Pre: 0.00325 Solve: 1.209 Post: 9.98e-06 Total: 1.213
Solve time per cell: 2.217e-05

==============================================================================
Step: 9 dt: 0.1 Time: 0.8 to 0.9
CFL: 0.181422 (conv: 0.171028 diff: 0 src: 0.0434252 )

Godunov:
  System                     Iters      Initial residual        Final residual
  ----------------------------------------------------------------------------
  MAC_projection                 8         0.02758390578       1.511074252e-14
  velocity_solve                 1       8.531875828e-08       3.880096244e-11
  Nodal_projection               7         0.05527161845       1.112456447e-13

WallClockTime: 9 Pre: 0.00332 Solve: 1.224 Post: 9.09e-06 Total: 1.227
Solve time per cell: 2.244e-05

==============================================================================
Step: 10 dt: 0.1 Time: 0.9 to 1
CFL: 0.182425 (conv: 0.172116 diff: 0 src: 0.0433669 )

Godunov:
  System                     Iters      Initial residual        Final residual
  ----------------------------------------------------------------------------
  MAC_projection                 8         0.02918117177       1.541084968e-14
  velocity_solve                 1       9.107455767e-08       4.127720388e-11
  Nodal_projection               7         0.05525688499        1.11260688e-13

WallClockTime: 10 Pre: 0.00338 Solve: 1.205 Post: 8.78e-06 Total: 1.209
Solve time per cell: 2.21e-05

==============================================================================
Step: 11 dt: 0.1 Time: 1 to 1.1
CFL: 0.18332 (conv: 0.173094 diff: 0 src: 0.0432961 )

Godunov:
  System                     Iters      Initial residual        Final residual
  ----------------------------------------------------------------------------
  MAC_projection                 8         0.03055780151       1.541475281e-14
  velocity_solve                 1       9.561417258e-08       4.317257662e-11
  Nodal_projection               7         0.05524169733       1.112774254e-13

WallClockTime: 11 Pre: 0.00781 Solve: 1.227 Post: 8.94e-06 Total: 1.235
Solve time per cell: 2.249e-05

==============================================================================
Step: 12 dt: 0.1 Time: 1.1 to 1.2
CFL: 0.18411 (conv: 0.173951 diff: 0 src: 0.0432464 )

Godunov:
  System                     Iters      Initial residual        Final residual
  ----------------------------------------------------------------------------
  MAC_projection                 8         0.03167674213       1.595598653e-14
  velocity_solve                 1        9.90061455e-08       4.452971325e-11
  Nodal_projection               7         0.05522473475       1.112964498e-13

WallClockTime: 12 Pre: 0.00324 Solve: 1.221 Post: 8.14e-06 Total: 1.224
Solve time per cell: 2.239e-05

==============================================================================
Step: 13 dt: 0.1 Time: 1.2 to 1.3
CFL: 0.184786 (conv: 0.174687 diff: 0 src: 0.0431991 )

Godunov:
  System                     Iters      Initial residual        Final residual
  ----------------------------------------------------------------------------
  MAC_projection                 8         0.03257344093       1.752851336e-14
  velocity_solve                 1       1.013253463e-07       4.538058818e-11
  Nodal_projection               7         0.05520930168       1.113172969e-13

WallClockTime: 13 Pre: 0.00374 Solve: 1.245 Post: 7.41e-06 Total: 1.249
Solve time per cell: 2.282e-05

==============================================================================
Step: 14 dt: 0.1 Time: 1.3 to 1.4
CFL: 0.185354 (conv: 0.175302 diff: 0 src: 0.0431644 )

Godunov:
  System                     Iters      Initial residual        Final residual
  ----------------------------------------------------------------------------
  MAC_projection                 8         0.03328183317        1.72691722e-14
  velocity_solve                 1       1.026985643e-07       4.579447932e-11
  Nodal_projection               7         0.05520396052       1.113404853e-13

WallClockTime: 14 Pre: 0.00335 Solve: 1.224 Post: 8.43e-06 Total: 1.227
Solve time per cell: 2.243e-05

==============================================================================
Step: 15 dt: 0.1 Time: 1.4 to 1.5
CFL: 0.186346 (conv: 0.176362 diff: 0 src: 0.0431323 )

Godunov:
  System                     Iters      Initial residual        Final residual
  ----------------------------------------------------------------------------
  MAC_projection                 7         0.03376811229       3.374505536e-13
  velocity_solve                 1       1.038691426e-07       4.583533553e-11
  Nodal_projection               7         0.05520042732       1.113652559e-13

WallClockTime: 15 Pre: 0.006 Solve: 1.237 Post: 9.68e-06 Total: 1.243
Solve time per cell: 2.268e-05

==============================================================================
Step: 16 dt: 0.1 Time: 1.5 to 1.6
CFL: 0.187421 (conv: 0.177509 diff: 0 src: 0.0431009 )

Godunov:
  System                     Iters      Initial residual        Final residual
  ----------------------------------------------------------------------------
  MAC_projection                 8         0.03406041655       1.732988753e-14
  velocity_solve                 1        1.10028779e-07       4.861711034e-11
  Nodal_projection               7         0.05520260927       1.113921069e-13

WallClockTime: 16 Pre: 0.00602 Solve: 1.21 Post: 8.83e-06 Total: 1.216
Solve time per cell: 2.218e-05

==============================================================================
Step: 17 dt: 0.1 Time: 1.6 to 1.7
CFL: 0.18846 (conv: 0.178613 diff: 0 src: 0.0430791 )

Godunov:
  System                     Iters      Initial residual        Final residual
  ----------------------------------------------------------------------------
  MAC_projection                 7         0.03417996257       3.388324777e-13
  velocity_solve                 1       1.152360554e-07       5.095124322e-11
  Nodal_projection               7         0.05520729798        1.11421028e-13

WallClockTime: 17 Pre: 0.00323 Solve: 1.199 Post: 8.18e-06 Total: 1.202
Solve time per cell: 2.199e-05

==============================================================================
Step: 18 dt: 0.1 Time: 1.7 to 1.8
CFL: 0.189453 (conv: 0.179671 diff: 0 src: 0.0430499 )

Godunov:
  System                     Iters      Initial residual        Final residual
  ----------------------------------------------------------------------------
  MAC_projection                 8         0.03418720032       1.725399337e-14
  velocity_solve                 1       1.194440511e-07       5.281997062e-11
  Nodal_projection               7         0.05521043914       1.114514432e-13

WallClockTime: 18 Pre: 0.00316 Solve: 1.223 Post: 7.92e-06 Total: 1.227
Solve time per cell: 2.243e-05

==============================================================================
Step: 19 dt: 0.1 Time: 1.8 to 1.9
CFL: 0.190401 (conv: 0.180678 diff: 0 src: 0.0430259 )

Godunov:
  System                     Iters      Initial residual        Final residual
  ----------------------------------------------------------------------------
  MAC_projection                 8         0.03417211483       1.690965076e-14
  velocity_solve                 1       1.226231987e-07       5.419309446e-11
  Nodal_projection               7         0.05521135025       1.114836102e-13

WallClockTime: 19 Pre: 0.00308 Solve: 1.211 Post: 7.66e-06 Total: 1.214
Solve time per cell: 2.22e-05

==============================================================================
Step: 20 dt: 0.1 Time: 1.9 to 2
CFL: 0.191299 (conv: 0.181631 diff: 0 src: 0.043005 )

Godunov:
  System                     Iters      Initial residual        Final residual
  ----------------------------------------------------------------------------
  MAC_projection                 8         0.03406465297       1.802393955e-14
  velocity_solve                 1       1.248050499e-07       5.509903644e-11
  Nodal_projection               7         0.05521084031       1.115174745e-13

WallClockTime: 20 Pre: 0.00374 Solve: 1.22 Post: 8.19e-06 Total: 1.224
Solve time per cell: 2.237e-05

==============================================================================
Step: 21 dt: 0.1 Time: 2 to 2.1
CFL: 0.192145 (conv: 0.182529 diff: 0 src: 0.0429845 )

Godunov:
  System                     Iters      Initial residual        Final residual
  ----------------------------------------------------------------------------
  MAC_projection                 8         0.03388793226       1.792056087e-14
  velocity_solve                 1       1.260730951e-07       5.556621829e-11
  Nodal_projection               7         0.05520878455       1.115533379e-13

WallClockTime: 21 Pre: 0.00639 Solve: 1.621 Post: 8.67e-06 Total: 1.628
Solve time per cell: 2.972e-05

==============================================================================
Step: 22 dt: 0.1 Time: 2.1 to 2.2
CFL: 0.192942 (conv: 0.183376 diff: 0 src: 0.0429625 )

Godunov:
  System                     Iters      Initial residual        Final residual
  ----------------------------------------------------------------------------
  MAC_projection                 8         0.03366251117       1.763015732e-14
  velocity_solve                 1       1.265172944e-07       5.565325978e-11
  Nodal_projection               7         0.05520547378       1.115915425e-13

WallClockTime: 22 Pre: 0.00309 Solve: 1.219 Post: 8.09e-06 Total: 1.222
Solve time per cell: 2.235e-05

==============================================================================
Step: 23 dt: 0.1 Time: 2.2 to 2.3
CFL: 0.193683 (conv: 0.184166 diff: 0 src: 0.0429324 )

Godunov:
  System                     Iters      Initial residual        Final residual
  ----------------------------------------------------------------------------
  MAC_projection                 8          0.0334098832       1.708892359e-14
  velocity_solve                 1       1.262003657e-07       5.538325354e-11
  Nodal_projection               7         0.05520516676       1.116322848e-13

WallClockTime: 23 Pre: 0.00453 Solve: 1.26 Post: 9.8e-06 Total: 1.265
Solve time per cell: 2.31e-05

==============================================================================
Step: 24 dt: 0.1 Time: 2.3 to 2.4
CFL: 0.19437 (conv: 0.1849 diff: 0 src: 0.042902 )

Godunov:
  System                     Iters      Initial residual        Final residual
  ----------------------------------------------------------------------------
  MAC_projection                 8         0.03314116398       1.679656848e-14
  velocity_solve                 1       1.251568325e-07        5.47757395e-11
  Nodal_projection               7         0.05520455332       1.116747923e-13

WallClockTime: 24 Pre: 0.00345 Solve: 1.212 Post: 9.15e-06 Total: 1.216
Solve time per cell: 2.223e-05

==============================================================================
Step: 25 dt: 0.1 Time: 2.4 to 2.5
CFL: 0.195004 (conv: 0.185579 diff: 0 src: 0.0428712 )

Godunov:
  System                     Iters      Initial residual        Final residual
  ----------------------------------------------------------------------------
  MAC_projection                 8         0.03287229886       1.653104736e-14
  velocity_solve                 1       1.236874514e-07       5.397104985e-11
  Nodal_projection               7         0.05520506585       1.117192513e-13

WallClockTime: 25 Pre: 0.00323 Solve: 1.21 Post: 7.76e-06 Total: 1.213
Solve time per cell: 2.218e-05

==============================================================================
Step: 26 dt: 0.1 Time: 2.5 to 2.6
CFL: 0.195624 (conv: 0.18624 diff: 0 src: 0.0428469 )

Godunov:
  System                     Iters      Initial residual        Final residual
  ----------------------------------------------------------------------------
  MAC_projection                 8         0.03261206659       1.758272347e-14
  velocity_solve                 1       1.233915246e-07       5.348255172e-11
  Nodal_projection               7         0.05520489602       1.117659364e-13

WallClockTime: 26 Pre: 0.0032 Solve: 1.212 Post: 8.4e-06 Total: 1.215
Solve time per cell: 2.222e-05

==============================================================================
Step: 27 dt: 0.1 Time: 2.6 to 2.7
CFL: 0.196477 (conv: 0.187142 diff: 0 src: 0.0428252 )

Godunov:
  System                     Iters      Initial residual        Final residual
  ----------------------------------------------------------------------------
  MAC_projection                 8         0.03237169323       1.790906833e-14
  velocity_solve                 1       1.252062241e-07       5.416289639e-11
  Nodal_projection               7         0.05520456693       1.118147221e-13

WallClockTime: 27 Pre: 0.00309 Solve: 1.215 Post: 8.89e-06 Total: 1.218
Solve time per cell: 2.228e-05

==============================================================================
Step: 28 dt: 0.1 Time: 2.7 to 2.8
CFL: 0.197275 (conv: 0.187988 diff: 0 src: 0.0428026 )

Godunov:
  System                     Iters      Initial residual        Final residual
  ----------------------------------------------------------------------------
  MAC_projection                 8         0.03219014051       1.732555072e-14
  velocity_solve                 1         1.2620416e-07       5.447553519e-11
  Nodal_projection               7          0.0552053678       1.118666859e-13

WallClockTime: 28 Pre: 0.0031 Solve: 1.206 Post: 7.44e-06 Total: 1.209
Solve time per cell: 2.212e-05

==============================================================================
Step: 29 dt: 0.1 Time: 2.8 to 2.9
CFL: 0.198019 (conv: 0.188778 diff: 0 src: 0.0427786 )

Godunov:
  System                     Iters      Initial residual        Final residual
  ----------------------------------------------------------------------------
  MAC_projection                 8         0.03204823853       1.716340828e-14
  velocity_solve                 1       1.264956975e-07       5.447020612e-11
  Nodal_projection               7         0.05520476551        1.11921062e-13

WallClockTime: 29 Pre: 0.00405 Solve: 1.226 Post: 7.83e-06 Total: 1.23
Solve time per cell: 2.247e-05

==============================================================================
Step: 30 dt: 0.1 Time: 2.9 to 3
CFL: 0.198709 (conv: 0.189511 diff: 0 src: 0.042751 )

Godunov:
  System                     Iters      Initial residual        Final residual
  ----------------------------------------------------------------------------
  MAC_projection                 8         0.03194286352       1.732587598e-14
  velocity_solve                 1       1.261956246e-07       5.420908167e-11
  Nodal_projection               7         0.05520444595       1.119783418e-13

WallClockTime: 30 Pre: 0.0033 Solve: 1.205 Post: 7.43e-06 Total: 1.209
Solve time per cell: 2.21e-05

==============================================================================
Step: 31 dt: 0.1 Time: 3 to 3.1
CFL: 0.19937 (conv: 0.190213 diff: 0 src: 0.0427254 )

Godunov:
  System                     Iters      Initial residual        Final residual
  ----------------------------------------------------------------------------
  MAC_projection                 8         0.03187097151       1.832160725e-14
  velocity_solve                 1        1.25414001e-07       5.372946532e-11
  Nodal_projection               7         0.05520420198       1.120386336e-13

WallClockTime: 31 Pre: 0.00644 Solve: 1.206 Post: 9.28e-06 Total: 1.212
Solve time per cell: 2.211e-05

==============================================================================
Step: 32 dt: 0.1 Time: 3.1 to 3.2
CFL: 0.199985 (conv: 0.190868 diff: 0 src: 0.0427 )

Godunov:
  System                     Iters      Initial residual        Final residual
  ----------------------------------------------------------------------------
  MAC_projection                 8         0.03182789145       1.744806556e-14
  velocity_solve                 1       1.242125744e-07       5.308997686e-11
  Nodal_projection               7         0.05520189631       1.121016562e-13

WallClockTime: 32 Pre: 0.00345 Solve: 1.206 Post: 8.38e-06 Total: 1.209
Solve time per cell: 2.21e-05

==============================================================================
Step: 33 dt: 0.1 Time: 3.2 to 3.3
CFL: 0.200555 (conv: 0.191476 diff: 0 src: 0.0426714 )

Godunov:
  System                     Iters      Initial residual        Final residual
  ----------------------------------------------------------------------------
  MAC_projection                 8          0.0318094316        1.72096495e-14
  velocity_solve                 1       1.227491655e-07       5.235278877e-11
  Nodal_projection               7         0.05520368132       1.121673182e-13

WallClockTime: 33 Pre: 0.00319 Solve: 1.205 Post: 9.2e-06 Total: 1.208
Solve time per cell: 2.21e-05

==============================================================================
Step: 34 dt: 0.1 Time: 3.3 to 3.4
CFL: 0.201077 (conv: 0.19204 diff: 0 src: 0.042627 )

Godunov:
  System                     Iters      Initial residual        Final residual
  ----------------------------------------------------------------------------
  MAC_projection                 8         0.03181116297       1.714064004e-14
  velocity_solve                 1       1.211421985e-07       5.157829719e-11
  Nodal_projection               7         0.05520479724       1.122366326e-13

WallClockTime: 34 Pre: 0.00319 Solve: 1.204 Post: 7.96e-06 Total: 1.208
Solve time per cell: 2.208e-05

==============================================================================
Step: 35 dt: 0.1 Time: 3.4 to 3.5
CFL: 0.201566 (conv: 0.192563 diff: 0 src: 0.0426006 )

Godunov:
  System                     Iters      Initial residual        Final residual
  ----------------------------------------------------------------------------
  MAC_projection                 8          0.0318285959       1.751810502e-14
  velocity_solve                 1       1.194606334e-07       5.079492382e-11
  Nodal_projection               7         0.05520564712       1.123094944e-13

WallClockTime: 35 Pre: 0.00321 Solve: 1.218 Post: 7.87e-06 Total: 1.222
Solve time per cell: 2.234e-05

==============================================================================
Step: 36 dt: 0.1 Time: 3.5 to 3.6
CFL: 0.202017 (conv: 0.193046 diff: 0 src: 0.0425708 )

Godunov:
  System                     Iters      Initial residual        Final residual
  ----------------------------------------------------------------------------
  MAC_projection                 8         0.03185783313       1.851323999e-14
  velocity_solve                 1       1.190884795e-07        5.06847897e-11
  Nodal_projection               7         0.05520652913       1.123859001e-13

WallClockTime: 36 Pre: 0.00336 Solve: 1.226 Post: 9.05e-06 Total: 1.229
Solve time per cell: 2.248e-05

==============================================================================
Step: 37 dt: 0.1 Time: 3.6 to 3.7
CFL: 0.202432 (conv: 0.193492 diff: 0 src: 0.0425402 )

Godunov:
  System                     Iters      Initial residual        Final residual
  ----------------------------------------------------------------------------
  MAC_projection                 8          0.0318953038       1.757840022e-14
  velocity_solve                 1       1.189171872e-07        5.05693265e-11
  Nodal_projection               7         0.05520726432       1.124660261e-13

WallClockTime: 37 Pre: 0.00372 Solve: 1.207 Post: 8.73e-06 Total: 1.211
Solve time per cell: 2.213e-05

==============================================================================
Step: 38 dt: 0.1 Time: 3.7 to 3.8
CFL: 0.202853 (conv: 0.193945 diff: 0 src: 0.0425089 )

Godunov:
  System                     Iters      Initial residual        Final residual
  ----------------------------------------------------------------------------
  MAC_projection                 8          0.0319373948       1.749993108e-14
  velocity_solve                 1       1.183443317e-07       5.028688577e-11
  Nodal_projection               7         0.05520792654       1.125499365e-13

WallClockTime: 38 Pre: 0.00359 Solve: 1.202 Post: 1.15e-05 Total: 1.206
Solve time per cell: 2.205e-05

==============================================================================
Step: 39 dt: 0.1 Time: 3.8 to 3.9
CFL: 0.203427 (conv: 0.194557 diff: 0 src: 0.0424768 )

Godunov:
  System                     Iters      Initial residual        Final residual
  ----------------------------------------------------------------------------
  MAC_projection                 8         0.03198069547       1.688972855e-14
  velocity_solve                 1       1.174283213e-07       4.985167834e-11
  Nodal_projection               7         0.05520819213       1.126376282e-13

WallClockTime: 39 Pre: 0.00326 Solve: 1.236 Post: 7.16e-06 Total: 1.239
Solve time per cell: 2.266e-05

==============================================================================
Step: 40 dt: 0.1 Time: 3.9 to 4
CFL: 0.203957 (conv: 0.195126 diff: 0 src: 0.0424418 )

Godunov:
  System                     Iters      Initial residual        Final residual
  ----------------------------------------------------------------------------
  MAC_projection                 8         0.03210793349       1.761579164e-14
  velocity_solve                 1       1.163203383e-07       4.934008757e-11
  Nodal_projection               7         0.05520837814       1.127292907e-13

WallClockTime: 40 Pre: 0.00307 Solve: 1.236 Post: 8.07e-06 Total: 1.239
Solve time per cell: 2.267e-05

==============================================================================
Step: 41 dt: 0.1 Time: 4 to 4.1
CFL: 0.20445 (conv: 0.195653 diff: 0 src: 0.0424094 )

Godunov:
  System                     Iters      Initial residual        Final residual
  ----------------------------------------------------------------------------
  MAC_projection                 8         0.03250116087       1.721734734e-14
  velocity_solve                 1       1.151495734e-07       4.879829874e-11
  Nodal_projection               7         0.05520858946       1.128252189e-13

WallClockTime: 41 Pre: 0.00619 Solve: 1.211 Post: 8.42e-06 Total: 1.217
Solve time per cell: 2.22e-05

==============================================================================
Step: 42 dt: 0.1 Time: 4.1 to 4.2
CFL: 0.204906 (conv: 0.196142 diff: 0 src: 0.0423765 )

Godunov:
  System                     Iters      Initial residual        Final residual
  ----------------------------------------------------------------------------
  MAC_projection                 8         0.03262112429       1.791091147e-14
  velocity_solve                 1       1.139966237e-07       4.827072075e-11
  Nodal_projection               7         0.05520867967       1.129256363e-13

WallClockTime: 42 Pre: 0.00312 Solve: 1.211 Post: 8.73e-06 Total: 1.214
Solve time per cell: 2.221e-05

==============================================================================
Step: 43 dt: 0.1 Time: 4.2 to 4.3
CFL: 0.205326 (conv: 0.196594 diff: 0 src: 0.0423437 )

Godunov:
  System                     Iters      Initial residual        Final residual
  ----------------------------------------------------------------------------
  MAC_projection                 8         0.03247256172       1.923450548e-14
  velocity_solve                 1       1.128346163e-07       4.774314277e-11
  Nodal_projection               7         0.05520885008       1.130304719e-13

WallClockTime: 43 Pre: 0.00308 Solve: 1.22 Post: 9.15e-06 Total: 1.223
Solve time per cell: 2.237e-05

==============================================================================
Step: 44 dt: 0.1 Time: 4.3 to 4.4
CFL: 0.205714 (conv: 0.197012 diff: 0 src: 0.0423118 )

Godunov:
  System                     Iters      Initial residual        Final residual
  ----------------------------------------------------------------------------
  MAC_projection                 8         0.03229120147       1.843967687e-14
  velocity_solve                 1       1.116471164e-07       4.721734115e-11
  Nodal_projection               7         0.05520852987       1.131401288e-13

WallClockTime: 44 Pre: 0.00393 Solve: 1.203 Post: 7.3e-06 Total: 1.207
Solve time per cell: 2.206e-05

==============================================================================
Step: 45 dt: 0.1 Time: 4.4 to 4.5
CFL: 0.206072 (conv: 0.197397 diff: 0 src: 0.0422797 )

Godunov:
  System                     Iters      Initial residual        Final residual
  ----------------------------------------------------------------------------
  MAC_projection                 8         0.03211339043       1.842926853e-14
  velocity_solve                 1       1.104636365e-07       4.671996123e-11
  Nodal_projection               7         0.05520737278       1.132543224e-13

WallClockTime: 45 Pre: 0.0039 Solve: 1.695 Post: 8.14e-06 Total: 1.699
Solve time per cell: 3.107e-05

==============================================================================
Step: 46 dt: 0.1 Time: 4.5 to 4.6
CFL: 0.2064 (conv: 0.197753 diff: 0 src: 0.042248 )

Godunov:
  System                     Iters      Initial residual        Final residual
  ----------------------------------------------------------------------------
  MAC_projection                 8          0.0321057364       1.777603672e-14
  velocity_solve                 1       1.093150583e-07       4.624922667e-11
  Nodal_projection               7         0.05520681529       1.133730662e-13

WallClockTime: 46 Pre: 0.00341 Solve: 1.218 Post: 1.12e-05 Total: 1.222
Solve time per cell: 2.233e-05

==============================================================================
Step: 47 dt: 0.1 Time: 4.6 to 4.7
CFL: 0.206703 (conv: 0.19808 diff: 0 src: 0.0422205 )

Godunov:
  System                     Iters      Initial residual        Final residual
  ----------------------------------------------------------------------------
  MAC_projection                 8         0.03209029036       1.728778999e-14
  velocity_solve                 1         1.0820313e-07       4.615507976e-11
  Nodal_projection               7         0.05520625105       1.134967432e-13

WallClockTime: 47 Pre: 0.0185 Solve: 1.209 Post: 8.53e-06 Total: 1.227
Solve time per cell: 2.216e-05

==============================================================================
Step: 48 dt: 0.1 Time: 4.7 to 4.8
CFL: 0.206981 (conv: 0.19838 diff: 0 src: 0.0421934 )

Godunov:
  System                     Iters      Initial residual        Final residual
  ----------------------------------------------------------------------------
  MAC_projection                 8         0.03206787955       1.727361743e-14
  velocity_solve                 1        1.07121032e-07       4.624212124e-11
  Nodal_projection               7          0.0552054196       1.136257768e-13

WallClockTime: 48 Pre: 0.00321 Solve: 1.649 Post: 7.69e-06 Total: 1.652
Solve time per cell: 3.023e-05

==============================================================================
Step: 49 dt: 0.1 Time: 4.8 to 4.9
CFL: 0.207235 (conv: 0.198655 diff: 0 src: 0.0421678 )

Godunov:
  System                     Iters      Initial residual        Final residual
  ----------------------------------------------------------------------------
  MAC_projection                 8          0.0320414109       1.719631382e-14
  velocity_solve                 1       1.068094182e-07       4.630074102e-11
  Nodal_projection               7         0.05520505743       1.137599909e-13

WallClockTime: 49 Pre: 0.00347 Solve: 1.683 Post: 7.58e-06 Total: 1.686
Solve time per cell: 3.085e-05

==============================================================================
Step: 50 dt: 0.1 Time: 4.9 to 5
CFL: 0.207467 (conv: 0.198906 diff: 0 src: 0.0421452 )

Godunov:
  System                     Iters      Initial residual        Final residual
  ----------------------------------------------------------------------------
  MAC_projection                 8          0.0320128115       1.850211336e-14
  velocity_solve                 1       1.067878976e-07       4.632916273e-11
  Nodal_projection               7         0.05520489903       1.138998597e-13

WallClockTime: 50 Pre: 0.00326 Solve: 1.244 Post: 7.73e-06 Total: 1.247
Solve time per cell: 2.28e-05

==============================================================================
Step: 51 dt: 0.1 Time: 5 to 5.1
CFL: 0.207733 (conv: 0.199192 diff: 0 src: 0.0421215 )

Godunov:
  System                     Iters      Initial residual        Final residual
  ----------------------------------------------------------------------------
  MAC_projection                 8         0.03203435959       1.772447274e-14
  velocity_solve                 1       1.067152748e-07       4.632916273e-11
  Nodal_projection               7         0.05520488141       1.140447566e-13

WallClockTime: 51 Pre: 0.00627 Solve: 1.234 Post: 7.53e-06 Total: 1.24
Solve time per cell: 2.263e-05

==============================================================================
Step: 52 dt: 0.1 Time: 5.1 to 5.2
CFL: 0.208073 (conv: 0.199556 diff: 0 src: 0.0420968 )

Godunov:
  System                     Iters      Initial residual        Final residual
  ----------------------------------------------------------------------------
  MAC_projection                 8         0.03237470405       1.940174367e-14
  velocity_solve                 1       1.065933226e-07       4.630074102e-11
  Nodal_projection               7         0.05520523155       1.141950575e-13

WallClockTime: 52 Pre: 0.00312 Solve: 1.236 Post: 8.4e-06 Total: 1.239
Solve time per cell: 2.265e-05

==============================================================================
Step: 53 dt: 0.1 Time: 5.2 to 5.3
CFL: 0.208385 (conv: 0.199891 diff: 0 src: 0.0420735 )

Godunov:
  System                     Iters      Initial residual        Final residual
  ----------------------------------------------------------------------------
  MAC_projection                 8         0.03263037164       1.935834847e-14
  velocity_solve                 1       1.064248636e-07       4.625100303e-11
  Nodal_projection               7         0.05520584194       1.143511419e-13

WallClockTime: 53 Pre: 0.00311 Solve: 1.22 Post: 8.54e-06 Total: 1.223
Solve time per cell: 2.237e-05

==============================================================================
Step: 54 dt: 0.1 Time: 5.3 to 5.4
CFL: 0.208672 (conv: 0.200199 diff: 0 src: 0.0420494 )

Godunov:
  System                     Iters      Initial residual        Final residual
  ----------------------------------------------------------------------------
  MAC_projection                 8         0.03271670578       1.911333234e-14
  velocity_solve                 1       1.062134825e-07       4.617284333e-11
  Nodal_projection               7         0.05520661177       1.145131116e-13

WallClockTime: 54 Pre: 0.00323 Solve: 1.21 Post: 7.82e-06 Total: 1.213
Solve time per cell: 2.218e-05

==============================================================================
Step: 55 dt: 0.1 Time: 5.4 to 5.5
CFL: 0.20896 (conv: 0.200508 diff: 0 src: 0.0420248 )

Godunov:
  System                     Iters      Initial residual        Final residual
  ----------------------------------------------------------------------------
  MAC_projection                 8         0.03259893892       1.897846097e-14
  velocity_solve                 1       1.059641974e-07        4.60751437e-11
  Nodal_projection               7          0.0552070748       1.146807326e-13

WallClockTime: 55 Pre: 0.00314 Solve: 1.211 Post: 8.27e-06 Total: 1.214
Solve time per cell: 2.22e-05

==============================================================================
Step: 56 dt: 0.1 Time: 5.5 to 5.6
CFL: 0.209224 (conv: 0.200793 diff: 0 src: 0.0419993 )

Godunov:
  System                     Iters      Initial residual        Final residual
  ----------------------------------------------------------------------------
  MAC_projection                 8         0.03220980707       1.980867185e-14
  velocity_solve                 1       1.056845722e-07       4.596500958e-11
  Nodal_projection               7         0.05520584393       1.148542321e-13

WallClockTime: 56 Pre: 0.00372 Solve: 1.213 Post: 7.99e-06 Total: 1.217
Solve time per cell: 2.224e-05

==============================================================================
Step: 57 dt: 0.1 Time: 5.6 to 5.7
CFL: 0.209465 (conv: 0.201055 diff: 0 src: 0.0419726 )

Godunov:
  System                     Iters      Initial residual        Final residual
  ----------------------------------------------------------------------------
  MAC_projection                 8         0.03235359854       1.933323289e-14
  velocity_solve                 1       1.053789571e-07       4.583711188e-11
  Nodal_projection               7         0.05520667192       1.150341283e-13

WallClockTime: 57 Pre: 0.00361 Solve: 1.207 Post: 7.9e-06 Total: 1.211
Solve time per cell: 2.213e-05

==============================================================================
Step: 58 dt: 0.1 Time: 5.7 to 5.8
CFL: 0.209683 (conv: 0.201294 diff: 0 src: 0.0419404 )

Godunov:
  System                     Iters      Initial residual        Final residual
  ----------------------------------------------------------------------------
  MAC_projection                 8         0.03251305037       1.976430426e-14
  velocity_solve                 1       1.050542977e-07       4.570388512e-11
  Nodal_projection               7         0.05520791648       1.152198081e-13

WallClockTime: 58 Pre: 0.0039 Solve: 1.215 Post: 7.63e-06 Total: 1.219
Solve time per cell: 2.227e-05

==============================================================================
Step: 59 dt: 0.1 Time: 5.8 to 5.9
CFL: 0.209882 (conv: 0.201511 diff: 0 src: 0.0419134 )

Godunov:
  System                     Iters      Initial residual        Final residual
  ----------------------------------------------------------------------------
  MAC_projection                 8         0.03229823497       1.949392796e-14
  velocity_solve                 1       1.047171789e-07       4.556000022e-11
  Nodal_projection               7         0.05520921007       1.154112308e-13

WallClockTime: 59 Pre: 0.00395 Solve: 1.205 Post: 8.92e-06 Total: 1.209
Solve time per cell: 2.209e-05

==============================================================================
Step: 60 dt: 0.1 Time: 5.9 to 6
CFL: 0.21006 (conv: 0.201709 diff: 0 src: 0.0418857 )

Godunov:
  System                     Iters      Initial residual        Final residual
  ----------------------------------------------------------------------------
  MAC_projection                 8         0.03163263591       1.888745237e-14
  velocity_solve                 1        1.04374319e-07       4.541433896e-11
  Nodal_projection               7          0.0552105394       1.156092061e-13

WallClockTime: 60 Pre: 0.00317 Solve: 1.197 Post: 1e-05 Total: 1.201
Solve time per cell: 2.195e-05

==============================================================================
Step: 61 dt: 0.1 Time: 6 to 6.1
CFL: 0.210221 (conv: 0.201886 diff: 0 src: 0.0418582 )

Godunov:
  System                     Iters      Initial residual        Final residual
  ----------------------------------------------------------------------------
  MAC_projection                 8          0.0321903359       1.958296806e-14
  velocity_solve                 1       1.040319511e-07       4.526690134e-11
  Nodal_projection               7         0.05521180059       1.158133817e-13

WallClockTime: 61 Pre: 0.00622 Solve: 1.201 Post: 9.38e-06 Total: 1.208
Solve time per cell: 2.203e-05

==============================================================================
Step: 62 dt: 0.1 Time: 6.1 to 6.2
CFL: 0.210363 (conv: 0.202045 diff: 0 src: 0.0418306 )

Godunov:
  System                     Iters      Initial residual        Final residual
  ----------------------------------------------------------------------------
  MAC_projection                 8         0.03256136486       1.918334469e-14
  velocity_solve                 1        1.03696232e-07       4.511946372e-11
  Nodal_projection               7         0.05521345796       1.160240591e-13

WallClockTime: 62 Pre: 0.00322 Solve: 1.659 Post: 7.92e-06 Total: 1.662
Solve time per cell: 3.042e-05

==============================================================================
Step: 63 dt: 0.1 Time: 6.2 to 6.3
CFL: 0.210489 (conv: 0.202187 diff: 0 src: 0.0418032 )

Godunov:
  System                     Iters      Initial residual        Final residual
  ----------------------------------------------------------------------------
  MAC_projection                 8         0.03267483819       1.958116557e-14
  velocity_solve                 1       1.033733632e-07        4.49844606e-11
  Nodal_projection               7         0.05521436096       1.162412282e-13

WallClockTime: 63 Pre: 0.0031 Solve: 1.627 Post: 1.07e-05 Total: 1.63
Solve time per cell: 2.983e-05

==============================================================================
Step: 64 dt: 0.1 Time: 6.3 to 6.4
CFL: 0.210626 (conv: 0.202341 diff: 0 src: 0.0417756 )

Godunov:
  System                     Iters      Initial residual        Final residual
  ----------------------------------------------------------------------------
  MAC_projection                 8         0.03247791707       1.959611401e-14
  velocity_solve                 1       1.030689827e-07       4.485301019e-11
  Nodal_projection               7         0.05521532524       1.164647907e-13

WallClockTime: 64 Pre: 0.0032 Solve: 1.21 Post: 7.93e-06 Total: 1.213
Solve time per cell: 2.218e-05

==============================================================================
Step: 65 dt: 0.1 Time: 6.4 to 6.5
CFL: 0.210833 (conv: 0.202566 diff: 0 src: 0.0417481 )

Godunov:
  System                     Iters      Initial residual        Final residual
  ----------------------------------------------------------------------------
  MAC_projection                 8         0.03267424554       2.011636842e-14
  velocity_solve                 1        1.02788217e-07       4.473577064e-11
  Nodal_projection               7         0.05521578214       1.166946619e-13

WallClockTime: 65 Pre: 0.00326 Solve: 2.977 Post: 7.58e-06 Total: 2.98
Solve time per cell: 5.457e-05

==============================================================================
Step: 66 dt: 0.1 Time: 6.5 to 6.6
CFL: 0.211019 (conv: 0.202771 diff: 0 src: 0.0417201 )

Godunov:
  System                     Iters      Initial residual        Final residual
  ----------------------------------------------------------------------------
  MAC_projection                 8         0.03265345846       2.006980194e-14
  velocity_solve                 1       1.025357879e-07        4.46345183e-11
  Nodal_projection               7         0.05521628006       1.169313263e-13

WallClockTime: 66 Pre: 0.0151 Solve: 1.493 Post: 7.71e-06 Total: 1.508
Solve time per cell: 2.737e-05

==============================================================================
Step: 67 dt: 0.1 Time: 6.6 to 6.7
CFL: 0.211186 (conv: 0.202956 diff: 0 src: 0.0416924 )

Godunov:
  System                     Iters      Initial residual        Final residual
  ----------------------------------------------------------------------------
  MAC_projection                 8          0.0320594908       2.103304781e-14
  velocity_solve                 1       1.023151306e-07       4.454925318e-11
  Nodal_projection               7         0.05521665314       1.171744993e-13

WallClockTime: 67 Pre: 0.0036 Solve: 1.21 Post: 8.74e-06 Total: 1.214
Solve time per cell: 2.219e-05

==============================================================================
Step: 68 dt: 0.1 Time: 6.7 to 6.8
CFL: 0.211336 (conv: 0.203122 diff: 0 src: 0.041665 )

Godunov:
  System                     Iters      Initial residual        Final residual
  ----------------------------------------------------------------------------
  MAC_projection                 8         0.03145477926       2.173399806e-14
  velocity_solve                 1       1.021295137e-07       4.447997526e-11
  Nodal_projection               7         0.05521666821       1.174243604e-13

WallClockTime: 68 Pre: 0.00559 Solve: 2.262 Post: 7.98e-06 Total: 2.268
Solve time per cell: 4.147e-05

==============================================================================
Step: 69 dt: 0.1 Time: 6.8 to 6.9
CFL: 0.211469 (conv: 0.20327 diff: 0 src: 0.0416396 )

Godunov:
  System                     Iters      Initial residual        Final residual
  ----------------------------------------------------------------------------
  MAC_projection                 8         0.03144218879       2.131496578e-14
  velocity_solve                 1       1.019808575e-07       4.442668455e-11
  Nodal_projection               7         0.05521702566       1.176809945e-13

WallClockTime: 69 Pre: 0.0385 Solve: 1.464 Post: 8.33e-06 Total: 1.502
Solve time per cell: 2.683e-05

==============================================================================
Step: 70 dt: 0.1 Time: 6.9 to 7
CFL: 0.211585 (conv: 0.2034 diff: 0 src: 0.0416149 )

Godunov:
  System                     Iters      Initial residual        Final residual
  ----------------------------------------------------------------------------
  MAC_projection                 8         0.03143057074       2.123672874e-14
  velocity_solve                 1       1.018705476e-07       4.439648649e-11
  Nodal_projection               7         0.05521680512       1.179441846e-13

WallClockTime: 70 Pre: 0.00329 Solve: 1.211 Post: 9.79e-06 Total: 1.214
Solve time per cell: 2.22e-05

==============================================================================
Step: 71 dt: 0.1 Time: 7 to 7.1
CFL: 0.211686 (conv: 0.203515 diff: 0 src: 0.0415903 )

Godunov:
  System                     Iters      Initial residual        Final residual
  ----------------------------------------------------------------------------
  MAC_projection                 8         0.03141942211       2.143516484e-14
  velocity_solve                 1       1.017992517e-07        4.43876047e-11
  Nodal_projection               7         0.05521649989       1.182141645e-13

WallClockTime: 71 Pre: 0.00622 Solve: 1.216 Post: 7.15e-06 Total: 1.222
Solve time per cell: 2.229e-05

==============================================================================
Step: 72 dt: 0.1 Time: 7.1 to 7.2
CFL: 0.211773 (conv: 0.203615 diff: 0 src: 0.041566 )

Godunov:
  System                     Iters      Initial residual        Final residual
  ----------------------------------------------------------------------------
  MAC_projection                 8         0.03140817759       2.151501633e-14
  velocity_solve                 1       1.017671138e-07       4.439115742e-11
  Nodal_projection               7         0.05521744055       1.184915068e-13

WallClockTime: 72 Pre: 0.00324 Solve: 1.206 Post: 8.97e-06 Total: 1.209
Solve time per cell: 2.211e-05

==============================================================================
Step: 73 dt: 0.1 Time: 7.2 to 7.3
CFL: 0.211846 (conv: 0.2037 diff: 0 src: 0.0415418 )

Godunov:
  System                     Iters      Initial residual        Final residual
  ----------------------------------------------------------------------------
  MAC_projection                 8         0.03153003459       2.029279522e-14
  velocity_solve                 1       1.017725832e-07       4.441425006e-11
  Nodal_projection               7         0.05521856798       1.187750866e-13

WallClockTime: 73 Pre: 0.00327 Solve: 1.236 Post: 9.21e-06 Total: 1.24
Solve time per cell: 2.267e-05

==============================================================================
Step: 74 dt: 0.1 Time: 7.3 to 7.4
CFL: 0.211906 (conv: 0.203771 diff: 0 src: 0.0415183 )

Godunov:
  System                     Iters      Initial residual        Final residual
  ----------------------------------------------------------------------------
  MAC_projection                 8         0.03153050739       2.030884141e-14
  velocity_solve                 1       1.018120273e-07       4.446043533e-11
  Nodal_projection               7         0.05521960687       1.190653479e-13

WallClockTime: 74 Pre: 0.00326 Solve: 1.215 Post: 8.65e-06 Total: 1.218
Solve time per cell: 2.227e-05

==============================================================================
Step: 75 dt: 0.1 Time: 7.4 to 7.5
CFL: 0.211954 (conv: 0.20383 diff: 0 src: 0.0414957 )

Godunov:
  System                     Iters      Initial residual        Final residual
  ----------------------------------------------------------------------------
  MAC_projection                 8         0.03166009026       1.981735902e-14
  velocity_solve                 1       1.018794844e-07       4.451727875e-11
  Nodal_projection               7         0.05522044751       1.193625107e-13

WallClockTime: 75 Pre: 0.00311 Solve: 1.208 Post: 7.97e-06 Total: 1.211
Solve time per cell: 2.215e-05

==============================================================================
Step: 76 dt: 0.1 Time: 7.5 to 7.6
CFL: 0.21199 (conv: 0.203876 diff: 0 src: 0.0414736 )

Godunov:
  System                     Iters      Initial residual        Final residual
  ----------------------------------------------------------------------------
  MAC_projection                 8         0.03135710141       2.000835478e-14
  velocity_solve                 1       1.019657976e-07       4.458833303e-11
  Nodal_projection               7         0.05522109645        1.19666931e-13

WallClockTime: 76 Pre: 0.00317 Solve: 1.228 Post: 7.84e-06 Total: 1.232
Solve time per cell: 2.252e-05

==============================================================================
Step: 77 dt: 0.1 Time: 7.6 to 7.7
CFL: 0.212016 (conv: 0.203912 diff: 0 src: 0.0414514 )

Godunov:
  System                     Iters      Initial residual        Final residual
  ----------------------------------------------------------------------------
  MAC_projection                 8          0.0313423587       1.995975542e-14
  velocity_solve                 1       1.020596976e-07       4.465583459e-11
  Nodal_projection               7         0.05522435808       1.199779649e-13

WallClockTime: 77 Pre: 0.00312 Solve: 1.241 Post: 7.48e-06 Total: 1.245
Solve time per cell: 2.276e-05

==============================================================================
Step: 78 dt: 0.1 Time: 7.7 to 7.8
CFL: 0.212106 (conv: 0.204014 diff: 0 src: 0.04143 )

Godunov:
  System                     Iters      Initial residual        Final residual
  ----------------------------------------------------------------------------
  MAC_projection                 8         0.03132687789       2.088626039e-14
  velocity_solve                 1       1.021480216e-07       4.472155979e-11
  Nodal_projection               7         0.05522513346       1.202955683e-13

WallClockTime: 78 Pre: 0.00316 Solve: 1.211 Post: 7.88e-06 Total: 1.214
Solve time per cell: 2.22e-05

==============================================================================
Step: 79 dt: 0.1 Time: 7.8 to 7.9
CFL: 0.212185 (conv: 0.204104 diff: 0 src: 0.0414088 )

Godunov:
  System                     Iters      Initial residual        Final residual
  ----------------------------------------------------------------------------
  MAC_projection                 8         0.03131078187       2.138943861e-14
  velocity_solve                 1       1.022173208e-07       4.477662685e-11
  Nodal_projection               7         0.05522530303       1.206198397e-13

WallClockTime: 79 Pre: 0.00332 Solve: 1.208 Post: 9.62e-06 Total: 1.211
Solve time per cell: 2.214e-05

==============================================================================
Step: 80 dt: 0.1 Time: 7.9 to 8
CFL: 0.212252 (conv: 0.20418 diff: 0 src: 0.0413912 )

Godunov:
  System                     Iters      Initial residual        Final residual
  ----------------------------------------------------------------------------
  MAC_projection                 8         0.03129417598       2.113573531e-14
  velocity_solve                 1       1.022548908e-07       4.482103577e-11
  Nodal_projection               7         0.05522532398       1.209510533e-13

WallClockTime: 80 Pre: 0.00336 Solve: 1.215 Post: 8.33e-06 Total: 1.218
Solve time per cell: 2.227e-05

==============================================================================
Step: 81 dt: 0.1 Time: 8 to 8.1
CFL: 0.21232 (conv: 0.204259 diff: 0 src: 0.0413702 )

Godunov:
  System                     Iters      Initial residual        Final residual
  ----------------------------------------------------------------------------
  MAC_projection                 8         0.03127723779       2.195936304e-14
  velocity_solve                 1       1.022505405e-07        4.48405757e-11
  Nodal_projection               7         0.05522750553       1.212888669e-13

WallClockTime: 81 Pre: 0.00618 Solve: 1.227 Post: 8.63e-06 Total: 1.233
Solve time per cell: 2.25e-05

==============================================================================
Step: 82 dt: 0.1 Time: 8.1 to 8.2
CFL: 0.212376 (conv: 0.204325 diff: 0 src: 0.0413494 )

Godunov:
  System                     Iters      Initial residual        Final residual
  ----------------------------------------------------------------------------
  MAC_projection                 8         0.03126014077        2.19025644e-14
  velocity_solve                 1        1.02197065e-07       4.483347027e-11
  Nodal_projection               7         0.05522747931       1.216335992e-13

WallClockTime: 82 Pre: 0.00319 Solve: 1.209 Post: 1.3e-05 Total: 1.212
Solve time per cell: 2.216e-05

==============================================================================
Step: 83 dt: 0.1 Time: 8.2 to 8.3
CFL: 0.212421 (conv: 0.20438 diff: 0 src: 0.0413286 )

Godunov:
  System                     Iters      Initial residual        Final residual
  ----------------------------------------------------------------------------
  MAC_projection                 8         0.03124426629       2.121220121e-14
  velocity_solve                 1       1.020904854e-07       4.479971949e-11
  Nodal_projection               7         0.05522724076       1.219845453e-13

WallClockTime: 83 Pre: 0.00315 Solve: 1.235 Post: 8.57e-06 Total: 1.238
Solve time per cell: 2.264e-05

==============================================================================
Step: 84 dt: 0.1 Time: 8.3 to 8.4
CFL: 0.212454 (conv: 0.204423 diff: 0 src: 0.0413083 )

Godunov:
  System                     Iters      Initial residual        Final residual
  ----------------------------------------------------------------------------
  MAC_projection                 8         0.03122886046       2.098884624e-14
  velocity_solve                 1       1.019294444e-07         4.4737547e-11
  Nodal_projection               7         0.05522686061       1.223423049e-13

WallClockTime: 84 Pre: 0.00323 Solve: 1.208 Post: 8.3e-06 Total: 1.211
Solve time per cell: 2.215e-05

==============================================================================
Step: 85 dt: 0.1 Time: 8.4 to 8.5
CFL: 0.212477 (conv: 0.204455 diff: 0 src: 0.0412869 )

Godunov:
  System                     Iters      Initial residual        Final residual
  ----------------------------------------------------------------------------
  MAC_projection                 8         0.03121374764       2.156490996e-14
  velocity_solve                 1       1.017153455e-07       4.464872916e-11
  Nodal_projection               7         0.05522623762       1.227065324e-13

WallClockTime: 85 Pre: 0.00312 Solve: 1.242 Post: 7.72e-06 Total: 1.245
Solve time per cell: 2.277e-05

==============================================================================
Step: 86 dt: 0.1 Time: 8.5 to 8.6
CFL: 0.21249 (conv: 0.204477 diff: 0 src: 0.0412652 )

Godunov:
  System                     Iters      Initial residual        Final residual
  ----------------------------------------------------------------------------
  MAC_projection                 8          0.0311990536       2.134662422e-14
  velocity_solve                 1       1.014517093e-07       4.454037139e-11
  Nodal_projection               7         0.05522507635       1.230772415e-13

WallClockTime: 86 Pre: 0.00355 Solve: 1.209 Post: 7.63e-06 Total: 1.213
Solve time per cell: 2.217e-05

==============================================================================
Step: 87 dt: 0.1 Time: 8.6 to 8.7
CFL: 0.212497 (conv: 0.204489 diff: 0 src: 0.041251 )

Godunov:
  System                     Iters      Initial residual        Final residual
  ----------------------------------------------------------------------------
  MAC_projection                 8         0.03118501358       2.090694154e-14
  velocity_solve                 1        1.01143959e-07       4.440359191e-11
  Nodal_projection               7         0.05522429139       1.234543439e-13

WallClockTime: 87 Pre: 0.00367 Solve: 1.209 Post: 8.76e-06 Total: 1.213
Solve time per cell: 2.217e-05

==============================================================================
Step: 88 dt: 0.1 Time: 8.7 to 8.8
CFL: 0.212503 (conv: 0.204493 diff: 0 src: 0.0412586 )

Godunov:
  System                     Iters      Initial residual        Final residual
  ----------------------------------------------------------------------------
  MAC_projection                 8         0.03117167371       2.165216791e-14
  velocity_solve                 1        1.00799161e-07       4.424904887e-11
  Nodal_projection               7         0.05522332404       1.238379889e-13

WallClockTime: 88 Pre: 0.0033 Solve: 1.214 Post: 1.07e-05 Total: 1.217
Solve time per cell: 2.225e-05

==============================================================================
Step: 89 dt: 0.1 Time: 8.8 to 8.9
CFL: 0.212501 (conv: 0.204488 diff: 0 src: 0.0412652 )

Godunov:
  System                     Iters      Initial residual        Final residual
  ----------------------------------------------------------------------------
  MAC_projection                 8         0.03115914881       2.172367104e-14
  velocity_solve                 1       1.004256287e-07       4.407674226e-11
  Nodal_projection               7         0.05522276594       1.242283355e-13

WallClockTime: 89 Pre: 0.00377 Solve: 1.206 Post: 8.36e-06 Total: 1.209
Solve time per cell: 2.21e-05

==============================================================================
Step: 90 dt: 0.1 Time: 8.9 to 9
CFL: 0.212491 (conv: 0.204475 diff: 0 src: 0.0412713 )

Godunov:
  System                     Iters      Initial residual        Final residual
  ----------------------------------------------------------------------------
  MAC_projection                 8          0.0311474549       2.192484475e-14
  velocity_solve                 1       1.000320413e-07       4.389910657e-11
  Nodal_projection               7         0.05522212809       1.246249503e-13

WallClockTime: 90 Pre: 0.00329 Solve: 1.644 Post: 7.9e-06 Total: 1.647
Solve time per cell: 3.014e-05

==============================================================================
Step: 91 dt: 0.1 Time: 9 to 9.1
CFL: 0.21249 (conv: 0.204471 diff: 0 src: 0.0412768 )

Godunov:
  System                     Iters      Initial residual        Final residual
  ----------------------------------------------------------------------------
  MAC_projection                 8         0.03113664489       2.315075215e-14
  velocity_solve                 1       9.962715097e-08        4.37125891e-11
  Nodal_projection               7         0.05522136837       1.250277619e-13

WallClockTime: 91 Pre: 0.00656 Solve: 1.238 Post: 8.23e-06 Total: 1.245
Solve time per cell: 2.27e-05

==============================================================================
Step: 92 dt: 0.1 Time: 9.1 to 9.2
CFL: 0.212516 (conv: 0.204497 diff: 0 src: 0.0412824 )

Godunov:
  System                     Iters      Initial residual        Final residual
  ----------------------------------------------------------------------------
  MAC_projection                 8         0.03112665719       2.209647396e-14
  velocity_solve                 1       9.921947175e-08       4.352429528e-11
  Nodal_projection               7         0.05522076095       1.254367026e-13

WallClockTime: 92 Pre: 0.00323 Solve: 1.207 Post: 8.13e-06 Total: 1.211
Solve time per cell: 2.214e-05

==============================================================================
Step: 93 dt: 0.1 Time: 9.2 to 9.3
CFL: 0.212534 (conv: 0.204513 diff: 0 src: 0.0412881 )

Godunov:
  System                     Iters      Initial residual        Final residual
  ----------------------------------------------------------------------------
  MAC_projection                 8         0.03111750508       2.232189314e-14
  velocity_solve                 1       9.881651408e-08       4.334133052e-11
  Nodal_projection               7          0.0552202163       1.258521993e-13

WallClockTime: 93 Pre: 0.00313 Solve: 1.229 Post: 8.42e-06 Total: 1.232
Solve time per cell: 2.253e-05

==============================================================================
Step: 94 dt: 0.1 Time: 9.3 to 9.4
CFL: 0.212542 (conv: 0.204519 diff: 0 src: 0.0412942 )

Godunov:
  System                     Iters      Initial residual        Final residual
  ----------------------------------------------------------------------------
  MAC_projection                 8         0.03110910811       2.262637777e-14
  velocity_solve                 1       9.842510451e-08        4.31654712e-11
  Nodal_projection               7         0.05521957664       1.262737236e-13

WallClockTime: 94 Pre: 0.00319 Solve: 1.209 Post: 7.93e-06 Total: 1.212
Solve time per cell: 2.216e-05

==============================================================================
Step: 95 dt: 0.1 Time: 9.4 to 9.5
CFL: 0.212543 (conv: 0.204517 diff: 0 src: 0.0413005 )

Godunov:
  System                     Iters      Initial residual        Final residual
  ----------------------------------------------------------------------------
  MAC_projection                 8         0.03110140165         2.1694506e-14
  velocity_solve                 1       9.805064494e-08       4.299316458e-11
  Nodal_projection               7          0.0552189347       1.267013194e-13

WallClockTime: 95 Pre: 0.00313 Solve: 1.227 Post: 7.99e-06 Total: 1.23
Solve time per cell: 2.249e-05

==============================================================================
Step: 96 dt: 0.1 Time: 9.5 to 9.6
CFL: 0.212535 (conv: 0.204507 diff: 0 src: 0.0413071 )

Godunov:
  System                     Iters      Initial residual        Final residual
  ----------------------------------------------------------------------------
  MAC_projection                 8         0.03109431398       2.165829365e-14
  velocity_solve                 1       9.769684617e-08       4.282973975e-11
  Nodal_projection               7         0.05521839091       1.271349156e-13

WallClockTime: 96 Pre: 0.00697 Solve: 1.213 Post: 8.62e-06 Total: 1.22
Solve time per cell: 2.223e-05

==============================================================================
Step: 97 dt: 0.1 Time: 9.6 to 9.7
CFL: 0.212521 (conv: 0.204489 diff: 0 src: 0.0413142 )

Godunov:
  System                     Iters      Initial residual        Final residual
  ----------------------------------------------------------------------------
  MAC_projection                 8         0.03108776421       2.242169395e-14
  velocity_solve                 1       9.736590556e-08       4.268407849e-11
  Nodal_projection               7         0.05521765908       1.275749153e-13

WallClockTime: 97 Pre: 0.00404 Solve: 1.213 Post: 8.87e-06 Total: 1.218
Solve time per cell: 2.225e-05

==============================================================================
Step: 98 dt: 0.1 Time: 9.7 to 9.8
CFL: 0.212499 (conv: 0.204464 diff: 0 src: 0.0413219 )

Godunov:
  System                     Iters      Initial residual        Final residual
  ----------------------------------------------------------------------------
  MAC_projection                 8         0.03108166125       2.245515514e-14
  velocity_solve                 1       9.705869886e-08       4.254729902e-11
  Nodal_projection               7         0.05521707376        1.28020336e-13

WallClockTime: 98 Pre: 0.00324 Solve: 1.261 Post: 8.48e-06 Total: 1.264
Solve time per cell: 2.311e-05

==============================================================================
Step: 99 dt: 0.1 Time: 9.8 to 9.9
CFL: 0.212472 (conv: 0.204432 diff: 0 src: 0.0413301 )

Godunov:
  System                     Iters      Initial residual        Final residual
  ----------------------------------------------------------------------------
  MAC_projection                 8          0.0310759345       2.275906717e-14
  velocity_solve                 1       9.677432189e-08       4.241940132e-11
  Nodal_projection               7         0.05521654675       1.284718215e-13

WallClockTime: 99 Pre: 0.00319 Solve: 1.206 Post: 8.29e-06 Total: 1.21
Solve time per cell: 2.212e-05

==============================================================================
Step: 100 dt: 0.1 Time: 9.9 to 10
CFL: 0.212439 (conv: 0.204395 diff: 0 src: 0.0413385 )

Godunov:
  System                     Iters      Initial residual        Final residual
  ----------------------------------------------------------------------------
  MAC_projection                 8         0.03107049078       2.259249814e-14
  velocity_solve                 1       9.651103028e-08       4.230216177e-11
  Nodal_projection               7         0.05521595192       1.289287823e-13

WallClockTime: 100 Pre: 0.00314 Solve: 1.244 Post: 0.0431 Total: 1.29
Solve time per cell: 2.28e-05

==============================================================================
Step: 101 dt: 0.1 Time: 10 to 10.1
CFL: 0.2124 (conv: 0.204351 diff: 0 src: 0.041347 )

Godunov:
  System                     Iters      Initial residual        Final residual
  ----------------------------------------------------------------------------
  MAC_projection                 8          0.0310653011       2.244840937e-14
  velocity_solve                 1       9.626586461e-08       4.219380401e-11
  Nodal_projection               7          0.0552140518       1.293915468e-13

WallClockTime: 101 Pre: 0.00326 Solve: 1.227 Post: 9.23e-06 Total: 1.23
Solve time per cell: 2.25e-05

==============================================================================
Step: 102 dt: 0.1 Time: 10.1 to 10.2
CFL: 0.212356 (conv: 0.204302 diff: 0 src: 0.0413557 )

Godunov:
  System                     Iters      Initial residual        Final residual
  ----------------------------------------------------------------------------
  MAC_projection                 8         0.03106027536       2.191904427e-14
  velocity_solve                 1       9.603561146e-08       4.209788074e-11
  Nodal_projection               7          0.0552142654       1.298599357e-13

WallClockTime: 102 Pre: 0.00412 Solve: 1.204 Post: 8.3e-06 Total: 1.208
Solve time per cell: 2.207e-05

==============================================================================
Step: 103 dt: 0.1 Time: 10.2 to 10.3
CFL: 0.212307 (conv: 0.204248 diff: 0 src: 0.0413644 )

Godunov:
  System                     Iters      Initial residual        Final residual
  ----------------------------------------------------------------------------
  MAC_projection                 8         0.03105539008        2.10300527e-14
  velocity_solve                 1       9.581670923e-08       4.200373382e-11
  Nodal_projection               7         0.05521467021       1.303332239e-13

WallClockTime: 103 Pre: 0.00351 Solve: 1.207 Post: 8.5e-06 Total: 1.21
Solve time per cell: 2.213e-05

==============================================================================
Step: 104 dt: 0.1 Time: 10.3 to 10.4
CFL: 0.212254 (conv: 0.20419 diff: 0 src: 0.041373 )

Godunov:
  System                     Iters      Initial residual        Final residual
  ----------------------------------------------------------------------------
  MAC_projection                 8         0.03105061844       2.130180797e-14
  velocity_solve                 1       9.560545244e-08       4.191136327e-11
  Nodal_projection               7         0.05521475456       1.308123226e-13

WallClockTime: 104 Pre: 0.00313 Solve: 1.22 Post: 8.08e-06 Total: 1.223
Solve time per cell: 2.237e-05

==============================================================================
Step: 105 dt: 0.1 Time: 10.4 to 10.5
CFL: 0.212197 (conv: 0.204127 diff: 0 src: 0.0413815 )

Godunov:
  System                     Iters      Initial residual        Final residual
  ----------------------------------------------------------------------------
  MAC_projection                 8         0.03104591993       2.225032224e-14
  velocity_solve                 1       9.539865076e-08       4.182254543e-11
  Nodal_projection               7         0.05521468898       1.312964697e-13

WallClockTime: 105 Pre: 0.00313 Solve: 1.228 Post: 7.75e-06 Total: 1.231
Solve time per cell: 2.252e-05

==============================================================================
Step: 106 dt: 0.1 Time: 10.5 to 10.6
CFL: 0.212157 (conv: 0.204082 diff: 0 src: 0.04139 )

Godunov:
  System                     Iters      Initial residual        Final residual
  ----------------------------------------------------------------------------
  MAC_projection                 8         0.03104129846       2.275751202e-14
  velocity_solve                 1       9.519362543e-08       4.173550394e-11
  Nodal_projection               7         0.05521448911       1.317858515e-13

WallClockTime: 106 Pre: 0.00309 Solve: 1.212 Post: 9.7e-06 Total: 1.215
Solve time per cell: 2.222e-05

==============================================================================
Step: 107 dt: 0.1 Time: 10.6 to 10.7
CFL: 0.212119 (conv: 0.20404 diff: 0 src: 0.0413982 )

Godunov:
  System                     Iters      Initial residual        Final residual
  ----------------------------------------------------------------------------
  MAC_projection                 8         0.03103680366        2.33810909e-14
  velocity_solve                 1       9.498780251e-08       4.164846246e-11
  Nodal_projection               7         0.05521388612       1.322806475e-13

WallClockTime: 107 Pre: 0.00321 Solve: 1.208 Post: 8.31e-06 Total: 1.211
Solve time per cell: 2.214e-05

==============================================================================
Step: 108 dt: 0.1 Time: 10.7 to 10.8
CFL: 0.212077 (conv: 0.203992 diff: 0 src: 0.0414062 )

Godunov:
  System                     Iters      Initial residual        Final residual
  ----------------------------------------------------------------------------
  MAC_projection                 8         0.03103240051       2.335837009e-14
  velocity_solve                 1       9.477934704e-08       4.155964461e-11
  Nodal_projection               7         0.05521353874       1.327802885e-13

WallClockTime: 108 Pre: 0.00314 Solve: 1.206 Post: 7.67e-06 Total: 1.21
Solve time per cell: 2.212e-05

==============================================================================
Step: 109 dt: 0.1 Time: 10.8 to 10.9
CFL: 0.212029 (conv: 0.20394 diff: 0 src: 0.041414 )

Godunov:
  System                     Iters      Initial residual        Final residual
  ----------------------------------------------------------------------------
  MAC_projection                 8         0.03102810878       2.295386103e-14
  velocity_solve                 1       9.456684857e-08       4.146727406e-11
  Nodal_projection               7         0.05521285462       1.332842596e-13

WallClockTime: 109 Pre: 0.00321 Solve: 1.201 Post: 8.81e-06 Total: 1.204
Solve time per cell: 2.202e-05

==============================================================================
Step: 110 dt: 0.1 Time: 10.9 to 11
CFL: 0.211977 (conv: 0.203883 diff: 0 src: 0.0414215 )

Godunov:
  System                     Iters      Initial residual        Final residual
  ----------------------------------------------------------------------------
  MAC_projection                 8         0.03102396126       2.226674791e-14
  velocity_solve                 1       9.434972092e-08        4.13749035e-11
  Nodal_projection               7         0.05521195974       1.337933873e-13

WallClockTime: 110 Pre: 0.00316 Solve: 1.207 Post: 9.3e-06 Total: 1.21
Solve time per cell: 2.212e-05

==============================================================================
Step: 111 dt: 0.1 Time: 11 to 11.1
CFL: 0.21192 (conv: 0.203821 diff: 0 src: 0.0414289 )

Godunov:
  System                     Iters      Initial residual        Final residual
  ----------------------------------------------------------------------------
  MAC_projection                 8         0.03102007056       2.270785556e-14
  velocity_solve                 1       9.412755375e-08       4.131806008e-11
  Nodal_projection               7         0.05521090526       1.343072111e-13

WallClockTime: 111 Pre: 0.00627 Solve: 1.204 Post: 8.57e-06 Total: 1.211
Solve time per cell: 2.208e-05

==============================================================================
Step: 112 dt: 0.1 Time: 11.1 to 11.2
CFL: 0.21186 (conv: 0.203755 diff: 0 src: 0.0414361 )

Godunov:
  System                     Iters      Initial residual        Final residual
  ----------------------------------------------------------------------------
  MAC_projection                 8         0.03101637119       2.269994089e-14
  velocity_solve                 1       9.390057976e-08       4.127009845e-11
  Nodal_projection               7         0.05520973555       1.348248837e-13

[...]
amr-wind::Field::fillpatch                                           18014         78       90.5      119.4   1.42%
MLMG::mgVcycle_up::2                                                122191      1.181      18.86      112.2   1.33%
MLMG::prepareForSolve()                                              18010      31.85      87.49      106.9   1.27%
MLCellLinOp::updateCorBC()                                          113156      59.74      77.46      98.99   1.17%
MLABecLaplacian::Fapply()                                           195062      42.99      79.97      93.54   1.11%
amrex::Copy()                                                      1277061       49.1       79.3       93.2   1.11%
MLPoisson::Fsmooth()                                               2566480      57.21      75.39      85.54   1.01%
MLMG::ResNormInf()                                                  240869       24.2      54.57      83.89   1.00%
FabArray::setVal()                                                 2890344       45.8       71.2      83.23   0.99%
FillPatchTwoLevels                                                   36028      63.94      74.86      83.05   0.99%
MLMG::mgVcycle_down::1                                              122191      55.11      60.94      80.11   0.95%
amrex::Add()                                                       1321268      28.38      54.77      70.06   0.83%
MLMG::mgVcycle_up::3                                                122191      1.213      3.798       64.5   0.77%
FabArray::Xpay()                                                   1531098      27.32      44.23      52.43   0.62%
MLMG:computeResOfCorrection()                                       610955      28.98      39.76      51.23   0.61%
amr-wind::setup_operator                                             18009      25.06      39.41      45.01   0.53%
MLMG::mgVcycle_down::2                                              122191      1.975      8.601      44.62   0.53%
FabArray::norminf()                                                 165289      13.68      26.93      42.96   0.51%
MLMG::mgVcycle_up::4                                                122191      1.467      1.656       39.8   0.47%
MLNodeLaplacian::restriction()                                      328065      15.28      21.46      39.14   0.46%
MLABecLaplacian::FFlux()                                            743799          0      13.31      36.15   0.43%
MLMG::MLResNormInf()                                                 50334      11.46      20.17      34.49   0.41%
OverrideSync_nowait()                                              2034003      15.26      22.79      34.46   0.41%
amrex::average_down_w_geom                                           36024      5.474      20.28      32.95   0.39%
NodalProjector::computeRHS                                            6004      16.46      21.28      32.02   0.38%
MLNodeLaplacian::compRHS()                                            6004      16.45      21.27         32   0.38%
MLMG::actualBottomSolve()                                           122191     0.0551     0.1548      31.72   0.38%
MLCGSolver::bicgstab                                                   339          0    0.08615      31.01   0.37%
amr-wind::godunov::predict_godunov                                  181424      20.02      26.63      30.36   0.36%
amr-wind::Field::fillpatch array                                      6003      16.88      19.39      28.58   0.34%
average_down_faces                                                  378189      14.85      20.89      27.79   0.33%
MLMG::mgVcycle_down::3                                              122191      1.634       2.62      25.08   0.30%
MultiFab::Copy()                                                     72042      6.653      17.16       21.1   0.25%
amr-wind::incflo::pre_advance_stage1                                  6000      9.005      12.33      17.29   0.21%
amr-wind::incflo::ComputeDt                                           6001      9.002      12.33      17.29   0.21%
FillPatchTwoLevels (Array<MF*>)                                      12006      14.54      15.86       16.9   0.20%
MLPoisson::Fapply()                                                 583774      8.236      13.92      16.69   0.20%
FabArrayBase::getCPC()                                             4510992      12.21      14.26      16.66   0.20%
amr-wind::ICNS-Godunov::compute_source_term                          12006      5.681      12.45      15.08   0.18%
amr-wind::diffusion::average_velocity_eta_to_faces                   54027      8.416      12.36      14.81   0.18%
FabArray::norminf(mask)                                             136688      2.608      8.462      13.73   0.16%
amr-wind::ICNS-Godunov::compute_predictor_rhs                         6003      6.638      11.84      13.67   0.16%
FillPatchInterp(Fab)                                                 36028    0.02295      3.174      13.18   0.16%
amr-wind::Field::advance_states                                      12000      3.542      10.45      13.02   0.15%
CellConservativeLinear::interp()                                      8274          0      3.082      12.99   0.15%
amr-wind::actuator::Actuator::update_positions                        6001      10.92      11.05      11.15   0.13%
MLMG::mgVcycle_down::4                                              122191      1.494      1.619      10.38   0.12%
FabArray::ParallelCopyToGhost()                                      36018     0.1508      3.947      8.653   0.10%
amr-wind::actuator::ActuatorContainer::sample_velocities              6001      6.854       8.05      8.515   0.10%
amr-wind::actuator::ActuatorContainer::populate_vel_buffer            6001      6.458      8.032        8.5   0.10%
MLCGSolver::ParallelAllReduce                                        17345          0    0.02305      8.297   0.10%
ParticleContainer::RedistributeCPU()                                 12063      5.902      6.926      8.176   0.10%
MLMG::getFluxes()                                                    12006       3.87      6.138      8.031   0.10%
MultiFab::Multiply()                                                114114      3.103      5.758       7.85   0.09%
FabArrayBase::getFB()                                              8511158      3.869      4.888      7.762   0.09%
MLCellLinOp::compFlux()                                              18009      3.606      5.611      7.242   0.09%
ParticleContainer::RedistributeMPI()                                 12063      4.024      5.552      6.742   0.08%
MLPoisson::FFlux()                                                 1419050     0.5999      2.598      5.952   0.07%
FabArray::Saxpy()                                                    63955      1.305      3.907      5.456   0.06%
amr-wind::incflo::post_advance_work                                   6000      2.443      2.481      4.852   0.06%
MLMG::MLRhsNormInf()                                                 18010      1.552      3.334      4.515   0.05%
MLNodeLaplacian::interpolation()                                    328065        1.7      2.888      4.449   0.05%
amr-wind::godunov::make_trans_velocities                            181424      2.811      3.736      4.268   0.05%
amr-wind::actuator::ActuatorContainer::update_positions               6001      2.533       2.97      4.146   0.05%
PhysBCFunct::()                                                     270160     0.2884     0.9686      3.999   0.05%
FabArray::mult()                                                    108054       1.15      2.646      3.833   0.05%
amr-wind::Field::setVal 1                                            12006      2.314      3.047      3.664   0.04%
FabArrayBase::CPC::define()                                         264310      1.377      2.228      3.607   0.04%
amr-wind::Field::fillphysbc                                          18009      0.164     0.6952       3.17   0.04%
MultiFab::Add()                                                      18009      1.059      2.254      3.094   0.04%
MLCellLinOp::prepareForSolve()                                       18010      1.413      2.299      3.054   0.04%
MLNodeLinOp::buildMasks()                                             6004      1.721      2.213      2.869   0.03%
amr-wind::set_acoeffs                                                18009      1.593      2.174      2.763   0.03%
MLNodeLaplacian::define()                                             6004      1.372      1.911      2.572   0.03%
FabArrayBase::FB::FB()                                               60066     0.0174     0.2961       2.38   0.03%
amr-wind::Sampling::post_advance_work                                 6001      1.622      1.877      2.354   0.03%
amrex::Dot()                                                         13477          0    0.00516      1.857   0.02%
amr-wind::Sampling::update_container                                    62       1.11      1.418       1.62   0.02%
amr-wind::Sampling::update_sampling_locations                           61      1.075      1.383      1.583   0.02%
amr-wind::incflo::InitData()                                             1      1.542      1.543      1.548   0.02%
amr-wind::ICNS-Godunov::compute_mueff                                 6003      0.375     0.9447      1.312   0.02%
FabArray::BuildMask()                                                48032     0.4715     0.6213      1.037   0.01%
MLLinOp::define()                                                     6007     0.5219     0.6575       0.92   0.01%
MLLinOp::defineGrids()                                                6007      0.509     0.6398      0.895   0.01%
FabArray::LinComb()                                                   6738          0   0.002463     0.8866   0.01%
amr-wind::incflo::prepare_for_time_integration                           1     0.7569     0.7645     0.7701   0.01%
amr-wind::incflo::init_amr_wind_modules                                  1     0.7477     0.7479     0.7558   0.01%
MLCellLinOp::setLevelBC()                                            54030     0.3799     0.5163      0.755   0.01%
FabArrayBase::TheFPinfo()                                            48034    0.07288     0.2583     0.7455   0.01%
amr-wind::IOManager::write_plot_file                                     7     0.6622     0.7079     0.7211   0.01%
amr-wind::FieldRepo::create_scratch_field                            42028     0.3926     0.5363     0.7158   0.01%
WriteMultiLevelPlotfile()                                                7     0.6484     0.6933     0.7095   0.01%
FaceDivFree::interp()                                                 4135          0     0.1633     0.6692   0.01%
amr-wind::actuator::Actuator::post_init_actions                          2      0.018    0.05866     0.6601   0.01%
VisMF::Write(FabArray)                                                  21     0.6025     0.6404     0.6524   0.01%
DistributionMapping::LeastUsedCPUs()                                     9   0.003908     0.1739     0.6456   0.01%
FPinfo::FPinfo()                                                         6   0.001448     0.1709     0.6426   0.01%
amr-wind::incflo::InitialIterations()                                    1     0.6216     0.6234     0.6254   0.01%
amr-wind::SamplingContainer::populate_buffer                            61     0.2439      0.455      0.524   0.01%
RedistributeMPI_copy                                                   190          0   0.006396     0.4109   0.00%
amr-wind::actuator::ActuatorContainer::interpolate_velocities         6001    0.00478     0.0121     0.3981   0.00%
MLLinOp::makeAgglomeratedDMap                                         6006     0.1768     0.2009     0.3494   0.00%
OwnerMask()                                                          12012     0.1113     0.2144     0.3304   0.00%
amr-wind::actuator::Actuator::compute_forces                          6001   0.004535    0.02163     0.2824   0.00%
makeSFC                                                              24024     0.1155     0.1373     0.2816   0.00%
FabArray::setVal(val, thecmd, scomp, ncomp)                          96274     0.1026     0.1742     0.2766   0.00%
MLNodeLaplacian::prepareForSolve()                                    6004    0.08855     0.1611     0.2572   0.00%
RedistributeMPI_locate                                                 190          0   0.006178     0.2545   0.00%
PCInterp::interp()                                                    4135          0    0.04944     0.2063   0.00%
MLNodeLaplacian::normalize()                                          3212          0  0.0005637     0.2029   0.00%
amr-wind::FieldRepo::get_field                                      102078     0.1108      0.151     0.1843   0.00%
FabArray::setDomainBndry()                                          108064    0.08669     0.1216     0.1779   0.00%
DistributionMapping::Distribute()                                    24027    0.04655    0.05185     0.1581   0.00%
amr-wind::diffusion::fixup_eta_on_domain_faces                       54027    0.05902     0.0958     0.1372   0.00%
amr-wind::SamplingContainer::initialize                                 62  2.351e-05  0.0003049    0.09929   0.00%
MLLinOp::makeSubCommunicator()                                        6006    0.02422    0.04139    0.07655   0.00%
amr-wind::Field::set_inflow                                          18003    0.02077    0.03305    0.04944   0.00%
amr-wind::Sampling::initialize                                           1    0.03449    0.03554    0.04566   0.00%
amr-wind::setup_solver                                                6003     0.0126    0.02416    0.03485   0.00%
amr-wind::incflo::InitialProjection()                                    1    0.02397     0.0321    0.03334   0.00%
amr-wind::incflo::init_mesh                                              1     0.0294    0.03067    0.03075   0.00%
amr-wind::actuator::Actuator::update_velocities                       6001   0.005051   0.008318     0.0293   0.00%
FabArray::RecvLayoutMask()                                           12014    0.01121    0.01527    0.02653   0.00%
MLABecLaplacian::normalize()                                            59          0  7.347e-05    0.02645   0.00%
amr-wind::FieldRepo::get_int_field                                    6003   0.009264    0.01799    0.02623   0.00%
NodalProjector::computeSyncResidual                                   6004   0.009366    0.01429    0.02332   0.00%
AmrMesh::MakeNewGrids()                                                  3    0.01323    0.01442    0.01734   0.00%
amr-wind::SamplingContainer::interpolate                                61  6.489e-05   0.001152    0.01447   0.00%
amr-wind::SamplingContainer::sample_impl                                88          0   0.001011    0.01429   0.00%
amr-wind::incflo::MakeNewLevelFromScratch()                              3   0.008923    0.01182    0.01303   0.00%
amr-wind::ICNS-Godunov::initialize                                       1    0.00962    0.01125    0.01286   0.00%
MLTensorOp::define()                                                     2   0.009544    0.01116    0.01278   0.00%
MLABecLaplacian::define()                                                2   0.009452    0.01105    0.01266   0.00%
amr-wind::FieldRepo::make_new_level_from_scratch                         3   0.008648    0.01123    0.01264   0.00%
MLCellLinOp::defineAuxData()                                             3    0.00871   0.009059    0.01004   0.00%
BoxList::parallelComplementIn()                                          7   0.005368    0.00651   0.009384   0.00%
BoxList::pci                                                             3    0.00536   0.006501    0.00937   0.00%
amr-wind::Field::copy_state                                              8    0.00313   0.006154   0.007317   0.00%
MLNodeLaplacian::averageDownCoeffs()                                  6004   0.003039   0.004587   0.006913   0.00%
MLCellLinOp::defineBC()                                                  3   0.003651   0.005161   0.006421   0.00%
amr-wind::incflo::regrid_and_update                                   6000   0.002275    0.00346   0.005511   0.00%
TagBoxArray::collate()                                                   4   0.001427    0.00331   0.004912   0.00%
MLPoisson::define()                                                      1    0.00332   0.003558   0.003859   0.00%
TagBoxArray::mapPRD                                                      4  0.0007797   0.001915   0.003577   0.00%
DistributionMapping::SFCProcessorMapDoIt()                               3   0.001505   0.003449   0.003551   0.00%
BndryData::define()                                                     15   0.001592   0.002086   0.002536   0.00%
MultiFab::Subtract()                                                     9  0.0007751   0.001709   0.002246   0.00%
NFI::ReadyToWrite:decider                                                0          0  8.587e-05   0.001978   0.00%
amr-wind::actuator::ActuatorContainer::initialize_container              1  0.0002195  0.0007747   0.001175   0.00%
amr-wind::actuator::ActuatorContainer::compute_local_coordinates         1  0.0001198  0.0006162  0.0007139   0.00%
amr-wind::incflo::ErrorEst()                                             4  0.0003302  0.0004841  0.0006836   0.00%
amr-wind::IntField::setVal 1                                             2  0.0001893  0.0003572  0.0004279   0.00%
amr-wind::SamplingContainer::setup                                      62  0.0001778  0.0002193  0.0003254   0.00%
amr-wind::RefineCriteriaManager::initialize                              1    7.5e-05  8.707e-05  0.0002996   0.00%
NFI::CleanUpMessages                                                    21   5.69e-05  7.718e-05  0.0001423   0.00%
MLPoisson::prepareForSolve()                                             1  3.675e-05  6.178e-05  0.0001171   0.00%
AmrMesh-cluster                                                          0          0  2.457e-07  8.845e-05   0.00%
amr-wind::FieldRepo::declare_field                                      12   2.36e-05  3.113e-05  8.644e-05   0.00%
amr-wind::FieldRepo::declare_int_field                                   2  3.244e-05  4.294e-05  5.701e-05   0.00%
BoxList::complementIn                                                    5   1.48e-05  2.148e-05  4.158e-05   0.00%
ClusterList::intersect()                                                 0          0  8.213e-08  2.957e-05   0.00%
amr-wind::FieldRepo::create_state                                        1   5.43e-07  6.971e-07  9.885e-06   0.00%
ClusterList::new_chop()                                                  0          0  6.211e-09  2.236e-06   0.00%
-------------------------------------------------------------------------------------------------------------------

Unused ParmParse Variables:
  [TOP]::incflo.gravity(nvals = 3)  :: [0.0, 0.0, -9.81]
  [TOP]::ABLForcing.abl_forcing_height(nvals = 1)  :: [0.0]
  [TOP]::io.KE_int(nvals = 1)  :: [-1]
  [TOP]::Actuator.T0.fllc(nvals = 1)  :: [false]
  [TOP]::sampling.Farm_hh.normal(nvals = 3)  :: [0.0, 0.0, 0.0]

Pinned Memory Usage:
---------------------------------------------------------------------------------------------------------------------
Name                            Nalloc  Nfree  AvgMem min  AvgMem avg  AvgMem max  MaxMem min  MaxMem avg  MaxMem max
---------------------------------------------------------------------------------------------------------------------
The_Pinned_Arena::Initialize()     360    360       6   B       8   B      10   B    8192 KiB    8192 KiB    8192 KiB
---------------------------------------------------------------------------------------------------------------------

AMReX (23.04-23-g2f47d132d71c) finalized
