==============================================================================
                AMR-Wind (https://github.com/exawind/amr-wind)

  AMR-Wind version :: caebcd1-DIRTY
  AMR-Wind Git SHA :: caebcd1f2841cf780ea3dcd566f05dbc21bc476f-DIRTY
  AMReX version    :: 23.04-23-g2f47d132d71c

  Exec. time       :: Mon Aug  7 10:19:08 2023
  Build time       :: Jul 18 2023 12:15:26
  C++ compiler     :: GNU 9.3.0

  MPI              :: ON    (Num. ranks = 540)
  GPU              :: OFF
  OpenMP           :: OFF

  Enabled third-party libraries: 
    NetCDF    4.9.2
    HYPRE     2.28.0
    OpenFAST  

           This software is released under the BSD 3-clause license.           
 See https://github.com/Exawind/amr-wind/blob/development/LICENSE for details. 
------------------------------------------------------------------------------

MPI initialized with 540 MPI processes
MPI initialized with thread support level 0
AMReX (23.04-23-g2f47d132d71c) initialized
Initializing AMR-Wind ...
Initializing boundary conditions for velocity_mueff
Initializing boundary conditions for velocity
Initializing boundary conditions for density
Initializing boundary conditions for p
Initializing boundary conditions for velocity_src_term
Initializing boundary conditions for gp
Creating PDESystem instance: ICNS-Godunov
Creating Physics instance: FreeStream
Creating Physics instance: Actuator
Initializing boundary conditions for mu_turb
Initializing boundary conditions for wall_dist
using default CellConsLinear interpolation for TKE fillpatch
Initializing boundary conditions for tke_mueff
Initializing boundary conditions for tke
Initializing boundary conditions for tke_src_term
Creating PDESystem instance: TKE-Godunov
Initializing boundary conditions for sdr_mueff
Initializing boundary conditions for sdr
Initializing boundary conditions for sdr_src_term
Creating PDESystem instance: SDR-Godunov
Creating TurbulenceModel instance: KOmegaSST-ConstTransport
Creating PostProcessBase instance: Sampling
Initializing I/O manager
Creating UDF instance: ConstValue
Creating UDF instance: ConstValue
Creating UDF instance: ConstValue
Creating UDF instance: ConstValue
Creating UDF instance: ConstValue
Creating ActuatorModel instance: JoukowskyDisk
Creating mesh... done
Grid summary: 
  Level 0   1458 grids  47775744 cells  100 % of domain
            smallest grid: 32 x 32 x 32  biggest grid: 32 x 32 x 32

For mflux_type, default is upwind
Creating MomentumSource instance: ActuatorForcing
Creating TKESource instance: KwSSTSrc
Creating SDRSource instance: SDRSrc
Creating SamplerBase instance: PlaneSampler
Begin initial projection
  Nodal_projection               0                     0                     0
Completed initial projection

Begin initial pressure iterations. Num. iters = 3
dt: 0.05
CFL: 0.04 (conv: 0.04 diff: 0 src: 0 )

Godunov:
  System                     Iters      Initial residual        Final residual
  ----------------------------------------------------------------------------
  MAC_projection                 0       1.088018564e-16       1.088018564e-16
  tke_solve                      3          0.2332460633       1.232902669e-12
  sdr_solve                      2             316.96875        2.15129603e-09
  velocity_solve                 0                     0                     0
  Nodal_projection               0                     0                     0

Godunov:
  System                     Iters      Initial residual        Final residual
  ----------------------------------------------------------------------------
  MAC_projection                 0       1.088018564e-16       1.088018564e-16
  tke_solve                      3          0.2332460633       1.232902669e-12
  sdr_solve                      2             316.96875        2.15129603e-09
  velocity_solve                 0                     0                     0
  Nodal_projection               0                     0                     0

Godunov:
  System                     Iters      Initial residual        Final residual
  ----------------------------------------------------------------------------
  MAC_projection                 0       1.088018564e-16       1.088018564e-16
  tke_solve                      3          0.2332460633       1.232902669e-12
  sdr_solve                      2             316.96875        2.15129603e-09
  velocity_solve                 0                     0                     0
  Nodal_projection               0                     0                     0
Completed initial pressure iterations

Writing plot file       plt00000 at time 0
Initialization successful. Time elapsed = 5.315445267

Begin simulation: 
  Run till 600 seconds 
  Fixed timestepping with dt = 0.05; max. CFL from inputs = 0.5

==============================================================================
Step: 1 dt: 0.05 Time: 0 to 0.05
CFL: 0.04 (conv: 0.04 diff: 0 src: 0 )

Godunov:
  System                     Iters      Initial residual        Final residual
  ----------------------------------------------------------------------------
  MAC_projection                 9       0.0004906541803       6.225167002e-16
  tke_solve                      3          0.2332460633       1.232902669e-12
  sdr_solve                      2             316.96875        2.15129603e-09
  velocity_solve                 1       1.597913979e-08       7.590372775e-12
  Nodal_projection               6       0.0007646216085       6.961984348e-16

WallClockTime: 1 Pre: 0.0209 Solve: 1.557 Post: 1.02e-05 Total: 1.578
Solve time per cell: 1.76e-05

==============================================================================
Step: 2 dt: 0.05 Time: 0.05 to 0.1
CFL: 0.0409555 (conv: 0.0400117 diff: 0 src: 0.00621715 )

Godunov:
  System                     Iters      Initial residual        Final residual
  ----------------------------------------------------------------------------
  MAC_projection                 7       0.0002149083955       5.851246848e-15
  tke_solve                      3         0.06258224364       1.323330334e-12
  sdr_solve                      3           80.41568266       2.989111181e-10
  velocity_solve                 1       9.596993422e-09       5.208278253e-12
  Nodal_projection               6       0.0007879158285       7.030271198e-16

WallClockTime: 2 Pre: 0.00329 Solve: 1.559 Post: 9.59e-06 Total: 1.563
Solve time per cell: 1.762e-05

==============================================================================
Step: 3 dt: 0.05 Time: 0.1 to 0.15
CFL: 0.0403149 (conv: 0.0400227 diff: 0 src: 0.00343206 )

Godunov:
  System                     Iters      Initial residual        Final residual
  ----------------------------------------------------------------------------
  MAC_projection                 7       0.0003116220467        6.45043372e-15
  tke_solve                      3         0.03646578187       1.361660784e-12
  sdr_solve                      3             40.650261       4.985878377e-10
  velocity_solve                 1       1.107873082e-08       6.060929536e-12
  Nodal_projection               6       0.0007898271173       7.030659559e-16

WallClockTime: 3 Pre: 0.00404 Solve: 1.539 Post: 9.57e-06 Total: 1.543
Solve time per cell: 1.739e-05

==============================================================================
Step: 4 dt: 0.05 Time: 0.15 to 0.2
CFL: 0.0403258 (conv: 0.0400337 diff: 0 src: 0.00343214 )

Godunov:
  System                     Iters      Initial residual        Final residual
  ----------------------------------------------------------------------------
  MAC_projection                 7       0.0003977276683       6.699067536e-15
  tke_solve                      3         0.02854602956       1.390193516e-12
  sdr_solve                      3           27.43444772       6.007780939e-10
  velocity_solve                 1        1.29435378e-08       7.101874644e-12
  Nodal_projection               6       0.0007896343263        7.03088528e-16

WallClockTime: 4 Pre: 0.00361 Solve: 1.52 Post: 1.1e-05 Total: 1.524
Solve time per cell: 1.719e-05

==============================================================================
Step: 5 dt: 0.05 Time: 0.2 to 0.25
CFL: 0.0403369 (conv: 0.0400448 diff: 0 src: 0.0034329 )

Godunov:
  System                     Iters      Initial residual        Final residual
  ----------------------------------------------------------------------------
  MAC_projection                 7       0.0004766988801       7.380506389e-15
  tke_solve                      3         0.02560668551       1.425803919e-12
  sdr_solve                      3           21.66623883       6.654943263e-10
  velocity_solve                 1       1.487439327e-08       8.176570532e-12
  Nodal_projection               6       0.0007891017912       7.030970256e-16

WallClockTime: 5 Pre: 0.00322 Solve: 1.516 Post: 9.74e-06 Total: 1.52
Solve time per cell: 1.714e-05

==============================================================================
Step: 6 dt: 0.05 Time: 0.25 to 0.3
CFL: 0.0403482 (conv: 0.0400559 diff: 0 src: 0.00343383 )

Godunov:
  System                     Iters      Initial residual        Final residual
  ----------------------------------------------------------------------------
  MAC_projection                 7       0.0005519306554       8.045574637e-15
  tke_solve                      3         0.02456017481       1.467381772e-12
  sdr_solve                      3           18.78057212       7.129301594e-10
  velocity_solve                 1       1.680658102e-08       9.254819133e-12
  Nodal_projection               6       0.0007886908303       7.030453616e-16

WallClockTime: 6 Pre: 0.00407 Solve: 1.514 Post: 9.86e-06 Total: 1.518
Solve time per cell: 1.711e-05

==============================================================================
Step: 7 dt: 0.05 Time: 0.3 to 0.35
CFL: 0.0403594 (conv: 0.0400671 diff: 0 src: 0.00343474 )

Godunov:
  System                     Iters      Initial residual        Final residual
  ----------------------------------------------------------------------------
  MAC_projection                 7       0.0006249060495       8.645755502e-15
  tke_solve                      3         0.02435080895       1.510985781e-12
  sdr_solve                      3           17.23034319       7.506457678e-10
  velocity_solve                 1       1.872128053e-08       1.032773866e-11
  Nodal_projection               6       0.0007886725613       7.030510162e-16

WallClockTime: 7 Pre: 0.00385 Solve: 1.54 Post: 1.02e-05 Total: 1.544
Solve time per cell: 1.741e-05

==============================================================================
Step: 8 dt: 0.05 Time: 0.35 to 0.4
CFL: 0.0403708 (conv: 0.0400784 diff: 0 src: 0.00343557 )

Godunov:
  System                     Iters      Initial residual        Final residual
  ----------------------------------------------------------------------------
  MAC_projection                 7       0.0006966252419       8.941473126e-15
  tke_solve                      3          0.0245261201         1.5531465e-12
  sdr_solve                      4           16.36933846       4.121147867e-13
  velocity_solve                 1       2.061152493e-08       1.138467098e-11
  Nodal_projection               6       0.0007886728453       7.030557138e-16

WallClockTime: 8 Pre: 0.00295 Solve: 1.546 Post: 1.01e-05 Total: 1.549
Solve time per cell: 1.747e-05

==============================================================================
Step: 9 dt: 0.05 Time: 0.4 to 0.45
CFL: 0.0403821 (conv: 0.0400897 diff: 0 src: 0.00343632 )

Godunov:
  System                     Iters      Initial residual        Final residual
  ----------------------------------------------------------------------------
  MAC_projection                 7       0.0007681040103       9.296388613e-15
  tke_solve                      3         0.02486357138       1.588701393e-12
  sdr_solve                      4           15.88794643       4.263256415e-13
  velocity_solve                 1       2.247422692e-08       1.243272152e-11
  Nodal_projection               6       0.0007886359213       7.030827833e-16

WallClockTime: 9 Pre: 0.00274 Solve: 1.547 Post: 1.07e-05 Total: 1.55
Solve time per cell: 1.749e-05

==============================================================================
Step: 10 dt: 0.05 Time: 0.45 to 0.5
CFL: 0.0403935 (conv: 0.0401011 diff: 0 src: 0.00343689 )

Godunov:
  System                     Iters      Initial residual        Final residual
  ----------------------------------------------------------------------------
  MAC_projection                 8       0.0008395004067       4.911588307e-16
  tke_solve                      3         0.02523845021       1.603883693e-12
  sdr_solve                      4           15.62358829       4.263256415e-13
  velocity_solve                 1       2.430782153e-08        1.34665612e-11
  Nodal_projection               6       0.0007887877865        7.03083378e-16

WallClockTime: 10 Pre: 0.00332 Solve: 1.575 Post: 1.04e-05 Total: 1.578
Solve time per cell: 1.78e-05

==============================================================================
Step: 11 dt: 0.05 Time: 0.5 to 0.55
CFL: 0.0404049 (conv: 0.0401124 diff: 0 src: 0.00343751 )

Godunov:
  System                     Iters      Initial residual        Final residual
  ----------------------------------------------------------------------------
  MAC_projection                 8       0.0009110658464       4.935542399e-16
  tke_solve                      3          0.0255975471       1.619260281e-12
  sdr_solve                      4           15.48564374       4.405364962e-13
  velocity_solve                 1       2.611144012e-08       1.448619003e-11
  Nodal_projection               6       0.0007892556083       7.031079552e-16

WallClockTime: 11 Pre: 0.00376 Solve: 1.551 Post: 9.96e-06 Total: 1.555
Solve time per cell: 1.753e-05

==============================================================================
Step: 12 dt: 0.05 Time: 0.55 to 0.6
CFL: 0.0404164 (conv: 0.0401238 diff: 0 src: 0.00343878 )

Godunov:
  System                     Iters      Initial residual        Final residual
  ----------------------------------------------------------------------------
  MAC_projection                 8       0.0009832415491       5.163140152e-16
  tke_solve                      3         0.02591640805       1.633027047e-12
  sdr_solve                      4           15.42168678       4.547473509e-13
  velocity_solve                 1        2.78820842e-08       1.548450257e-11
  Nodal_projection               6       0.0007895623244       7.030847652e-16

WallClockTime: 12 Pre: 0.00272 Solve: 1.633 Post: 1.03e-05 Total: 1.636
Solve time per cell: 1.846e-05

==============================================================================
Step: 13 dt: 0.05 Time: 0.6 to 0.65
CFL: 0.0404279 (conv: 0.0401352 diff: 0 src: 0.00343991 )

Godunov:
  System                     Iters      Initial residual        Final residual
  ----------------------------------------------------------------------------
  MAC_projection                 8        0.001045881346       5.502427669e-16
  tke_solve                      3          0.0261866509       1.644517855e-12
  sdr_solve                      4           15.40074776       4.547473509e-13
  velocity_solve                 1       2.961118106e-08       1.647038061e-11
  Nodal_projection               6       0.0007896540122       7.030991606e-16

WallClockTime: 13 Pre: 0.00278 Solve: 1.567 Post: 9.38e-06 Total: 1.57
Solve time per cell: 1.771e-05

==============================================================================
Step: 14 dt: 0.05 Time: 0.65 to 0.7
CFL: 0.0404394 (conv: 0.0401466 diff: 0 src: 0.00344096 )

Godunov:
  System                     Iters      Initial residual        Final residual
  ----------------------------------------------------------------------------
  MAC_projection                 8           0.001103145       5.718082258e-16
  tke_solve                      3         0.02640854856       1.653566173e-12
  sdr_solve                      4           15.40435866       4.547473509e-13
  velocity_solve                 1       3.129958159e-08       1.743138967e-11
  Nodal_projection               6       0.0007896770642       7.031261846e-16

WallClockTime: 14 Pre: 0.00691 Solve: 2.141 Post: 1.08e-05 Total: 2.148
Solve time per cell: 2.42e-05

==============================================================================
Step: 15 dt: 0.05 Time: 0.7 to 0.75
CFL: 0.0404509 (conv: 0.040158 diff: 0 src: 0.00344208 )

Godunov:
  System                     Iters      Initial residual        Final residual
  ----------------------------------------------------------------------------
  MAC_projection                 8        0.001158283855        5.90863079e-16
  tke_solve                      3         0.02658663001       1.660366289e-12
  sdr_solve                      4           15.42149849       4.689582056e-13
  velocity_solve                 1       3.294550943e-08       1.837285879e-11
  Nodal_projection               6       0.0007896684539       7.031028705e-16

WallClockTime: 15 Pre: 0.00401 Solve: 1.568 Post: 1.03e-05 Total: 1.572
Solve time per cell: 1.772e-05

==============================================================================
Step: 16 dt: 0.05 Time: 0.75 to 0.8
CFL: 0.0404623 (conv: 0.0401693 diff: 0 src: 0.00344329 )

Godunov:
  System                     Iters      Initial residual        Final residual
  ----------------------------------------------------------------------------
  MAC_projection                 8        0.001211300038       6.250425524e-16
  tke_solve                      3         0.02672711803       1.665223515e-12
  sdr_solve                      4           15.44563457       4.689582056e-13
  velocity_solve                 1        3.45482789e-08       1.929301163e-11
  Nodal_projection               6        0.000789644473       7.031588818e-16

WallClockTime: 16 Pre: 0.00375 Solve: 1.551 Post: 1e-05 Total: 1.555
Solve time per cell: 1.753e-05

==============================================================================
Step: 17 dt: 0.05 Time: 0.8 to 0.85
CFL: 0.0404738 (conv: 0.0401806 diff: 0 src: 0.00344467 )

Godunov:
  System                     Iters      Initial residual        Final residual
  ----------------------------------------------------------------------------
  MAC_projection                 8        0.001263617965       6.443684562e-16
  tke_solve                      3         0.02683650374       1.668498673e-12
  sdr_solve                      4           15.47295109       4.689582056e-13
  velocity_solve                 1        3.61084016e-08       2.018829548e-11
  Nodal_projection               6       0.0007896142622       7.031776183e-16

WallClockTime: 17 Pre: 0.00276 Solve: 1.59 Post: 2.09e-05 Total: 1.593
Solve time per cell: 1.797e-05

==============================================================================
Step: 18 dt: 0.05 Time: 0.85 to 0.9
CFL: 0.0404852 (conv: 0.0401919 diff: 0 src: 0.00344619 )

Godunov:
  System                     Iters      Initial residual        Final residual
  ----------------------------------------------------------------------------
  MAC_projection                 8        0.001328711394        6.73208234e-16
  tke_solve                      3         0.02692081682       1.670441563e-12
  sdr_solve                      4           15.50127486       4.689582056e-13
  velocity_solve                 1       3.762687939e-08       2.106048669e-11
  Nodal_projection               6       0.0007895672937         7.0317033e-16

WallClockTime: 18 Pre: 0.00277 Solve: 1.597 Post: 1e-05 Total: 1.6
Solve time per cell: 1.806e-05

==============================================================================
Step: 19 dt: 0.05 Time: 0.9 to 0.95
CFL: 0.0404966 (conv: 0.0402031 diff: 0 src: 0.00344783 )

Godunov:
  System                     Iters      Initial residual        Final residual
  ----------------------------------------------------------------------------
  MAC_projection                 8        0.001388662022       7.012077551e-16
  tke_solve                      3         0.02698530853       1.671413008e-12
  sdr_solve                      4           15.52942006       4.689582056e-13
  velocity_solve                 1       3.910292001e-08       2.191313797e-11
  Nodal_projection               6       0.0007895122364       7.031850128e-16

WallClockTime: 19 Pre: 0.00402 Solve: 1.548 Post: 1.03e-05 Total: 1.552
Solve time per cell: 1.75e-05

==============================================================================
Step: 20 dt: 0.05 Time: 0.95 to 1
CFL: 0.040508 (conv: 0.0402142 diff: 0 src: 0.00344946 )

Godunov:
  System                     Iters      Initial residual        Final residual
  ----------------------------------------------------------------------------
  MAC_projection                 8        0.001442400128       7.091868054e-16
  tke_solve                      3          0.0270343683       1.671607297e-12
  sdr_solve                      4           15.55678822       4.689582056e-13
  velocity_solve                 1       4.053650571e-08       2.274802569e-11
  Nodal_projection               6       0.0007894530426       7.031784843e-16

WallClockTime: 20 Pre: 0.00333 Solve: 1.592 Post: 1.16e-05 Total: 1.596
Solve time per cell: 1.8e-05

==============================================================================
Step: 21 dt: 0.05 Time: 1 to 1.05
CFL: 0.0405192 (conv: 0.0402253 diff: 0 src: 0.00345099 )

Godunov:
  System                     Iters      Initial residual        Final residual
  ----------------------------------------------------------------------------
  MAC_projection                 7        0.001488904954       1.437303103e-14
  tke_solve                      3         0.02707156282       1.671218719e-12
  sdr_solve                      4           15.58312478       4.831690603e-13
  velocity_solve                 1       4.192902381e-08       2.355449169e-11
  Nodal_projection               6        0.000789385925       7.031858682e-16

WallClockTime: 21 Pre: 0.00379 Solve: 1.58 Post: 1.01e-05 Total: 1.583
Solve time per cell: 1.785e-05

==============================================================================
Step: 22 dt: 0.05 Time: 1.05 to 1.1
CFL: 0.0405303 (conv: 0.0402362 diff: 0 src: 0.00345237 )

Godunov:
  System                     Iters      Initial residual        Final residual
  ----------------------------------------------------------------------------
  MAC_projection                 7        0.001528182909       1.482053209e-14
  tke_solve                      3         0.02709973142       1.670386052e-12
  sdr_solve                      4           15.60837185       4.831690603e-13
  velocity_solve                 1       4.328100545e-08       2.433786506e-11
  Nodal_projection               6       0.0007895920212       7.032243767e-16

WallClockTime: 22 Pre: 0.00368 Solve: 1.547 Post: 9.2e-06 Total: 1.551
Solve time per cell: 1.749e-05

==============================================================================
Step: 23 dt: 0.05 Time: 1.1 to 1.15
CFL: 0.0405413 (conv: 0.0402471 diff: 0 src: 0.00345336 )

Godunov:
  System                     Iters      Initial residual        Final residual
  ----------------------------------------------------------------------------
  MAC_projection                 7         0.00156060558       1.434406928e-14
  tke_solve                      3         0.02712109979       1.669220318e-12
  sdr_solve                      4           15.63258003       4.831690603e-13
  velocity_solve                 1       4.459306346e-08       2.510702757e-11
  Nodal_projection               6       0.0007898434133        7.03222425e-16

WallClockTime: 23 Pre: 0.0032 Solve: 1.538 Post: 9.82e-06 Total: 1.541
Solve time per cell: 1.739e-05

==============================================================================
Step: 24 dt: 0.05 Time: 1.15 to 1.2
CFL: 0.0405521 (conv: 0.0402579 diff: 0 src: 0.00345381 )

Godunov:
  System                     Iters      Initial residual        Final residual
  ----------------------------------------------------------------------------
  MAC_projection                 7        0.001586907416       1.472511213e-14
  tke_solve                      3         0.02713739209       1.667832539e-12
  sdr_solve                      4           15.65585601       4.831690603e-13
  velocity_solve                 1       4.586545543e-08        2.58548738e-11
  Nodal_projection               6       0.0007900708021       7.032845926e-16

WallClockTime: 24 Pre: 0.00275 Solve: 1.568 Post: 9.91e-06 Total: 1.57
Solve time per cell: 1.772e-05

==============================================================================
Step: 25 dt: 0.05 Time: 1.2 to 1.25
CFL: 0.0405626 (conv: 0.0402686 diff: 0 src: 0.00345386 )

Godunov:
  System                     Iters      Initial residual        Final residual
  ----------------------------------------------------------------------------
  MAC_projection                 7        0.001607373286       1.581123538e-14
  tke_solve                      3         0.02716164598        1.68255427e-12
  sdr_solve                      1       8.320085805e+17           306013.5277
  velocity_solve                 1       4.709827905e-08       2.657785103e-11
  Nodal_projection               6       0.0007902656997       7.032279795e-16

WallClockTime: 25 Pre: 0.00328 Solve: 1.489 Post: 1.07e-05 Total: 1.493
Solve time per cell: 1.683e-05

==============================================================================
Step: 26 dt: 0.05 Time: 1.25 to 1.3
CFL: 0.0405731 (conv: 0.0402791 diff: 0 src: 0.00345356 )

Godunov:
  System                     Iters      Initial residual        Final residual
  ----------------------------------------------------------------------------
  MAC_projection                 7        0.001640983905        1.57574454e-14
  tke_solve                      4           0.465708383       3.094746681e-15
  sdr_solve                      3           63827.33814        5.06224751e-07
  velocity_solve                 1       4.829138689e-08        2.72830647e-11
  Nodal_projection               6        0.000790432893         7.0329466e-16

WallClockTime: 26 Pre: 0.00418 Solve: 1.538 Post: 1.04e-05 Total: 1.542
Solve time per cell: 1.738e-05

==============================================================================
Step: 27 dt: 0.05 Time: 1.3 to 1.35
CFL: 0.0405833 (conv: 0.0402895 diff: 0 src: 0.00345308 )

Godunov:
  System                     Iters      Initial residual        Final residual
  ----------------------------------------------------------------------------
  MAC_projection                 7         0.00167640552       1.634396489e-14
  tke_solve                      3         0.01563171229       9.951570817e-13
  sdr_solve                      4           238.9647369       4.092726158e-12
  velocity_solve                 1       4.944355325e-08       2.796163301e-11
  Nodal_projection               6       0.0007905897358       7.033275503e-16

WallClockTime: 27 Pre: 0.00313 Solve: 1.54 Post: 9.96e-06 Total: 1.544
Solve time per cell: 1.741e-05

==============================================================================
Step: 28 dt: 0.05 Time: 1.35 to 1.4
CFL: 0.0405935 (conv: 0.0402998 diff: 0 src: 0.00345247 )

Godunov:
  System                     Iters      Initial residual        Final residual
  ----------------------------------------------------------------------------
  MAC_projection                 8        0.001710787472       7.980405616e-16
  tke_solve                      3         0.02234000181       1.408423725e-12
  sdr_solve                      4           62.70992748       7.389644452e-13
  velocity_solve                 1       5.055295915e-08       2.862243775e-11
  Nodal_projection               6       0.0007907228644       7.033190631e-16

WallClockTime: 28 Pre: 0.00284 Solve: 1.555 Post: 1.07e-05 Total: 1.558
Solve time per cell: 1.758e-05

==============================================================================
Step: 29 dt: 0.05 Time: 1.4 to 1.45
CFL: 0.0406035 (conv: 0.04031 diff: 0 src: 0.00345179 )

Godunov:
  System                     Iters      Initial residual        Final residual
  ----------------------------------------------------------------------------
  MAC_projection                 8        0.001744048023       8.263037217e-16
  tke_solve                      3         0.02673897347       1.674047619e-12
  sdr_solve                      3           27.65172741       5.829181582e-10
  velocity_solve                 1       5.161759731e-08       2.925659714e-11
  Nodal_projection               6       0.0007908231016        7.03344736e-16

WallClockTime: 29 Pre: 0.00382 Solve: 1.534 Post: 9.63e-06 Total: 1.538
Solve time per cell: 1.734e-05

==============================================================================
Step: 30 dt: 0.05 Time: 1.45 to 1.5
CFL: 0.0406133 (conv: 0.0403201 diff: 0 src: 0.00345103 )

Godunov:
  System                     Iters      Initial residual        Final residual
  ----------------------------------------------------------------------------
  MAC_projection                 8        0.001776279666       8.494927309e-16
  tke_solve                      3         0.02915551638       1.816517856e-12
  sdr_solve                      4           15.16526317       3.694822226e-13
  velocity_solve                 1        5.26342383e-08       2.986588754e-11
  Nodal_projection               6       0.0007908795365       7.033828134e-16

WallClockTime: 30 Pre: 0.00426 Solve: 1.55 Post: 1.01e-05 Total: 1.554
Solve time per cell: 1.752e-05

==============================================================================
Step: 31 dt: 0.05 Time: 1.5 to 1.55
CFL: 0.040623 (conv: 0.0403299 diff: 0 src: 0.00345027 )

Godunov:
  System                     Iters      Initial residual        Final residual
  ----------------------------------------------------------------------------
  MAC_projection                 8        0.001807689903       8.757033185e-16
  tke_solve                      3         0.03019176794       1.876973403e-12
  sdr_solve                      3       2.936000771e+15           624.1794762
  velocity_solve                 1       5.360459099e-08       3.045030894e-11
  Nodal_projection               6       0.0007908965619       7.034133093e-16

WallClockTime: 31 Pre: 0.00353 Solve: 1.616 Post: 1.63e-05 Total: 1.62
Solve time per cell: 1.827e-05

==============================================================================
Step: 32 dt: 0.05 Time: 1.55 to 1.6
CFL: 0.0406326 (conv: 0.0403397 diff: 0 src: 0.00344983 )

Godunov:
  System                     Iters      Initial residual        Final residual
  ----------------------------------------------------------------------------
  MAC_projection                 8        0.001838346106       8.782647461e-16
  tke_solve                      3         0.03039605068       1.883411829e-12
  sdr_solve                      4           246.9147179       5.798028724e-12
  velocity_solve                 1       5.453274987e-08       3.101341406e-11
  Nodal_projection               6       0.0007908781387       7.034285247e-16

WallClockTime: 32 Pre: 0.00275 Solve: 1.601 Post: 9.87e-06 Total: 1.603
Solve time per cell: 1.809e-05

==============================================================================
Step: 33 dt: 0.05 Time: 1.6 to 1.65
CFL: 0.0406421 (conv: 0.0403492 diff: 0 src: 0.0034498 )

Godunov:
  System                     Iters      Initial residual        Final residual
  ----------------------------------------------------------------------------
  MAC_projection                 8        0.001868327872       8.962828309e-16
  tke_solve                      3          0.0303324565       1.876211859e-12
  sdr_solve                      4           63.88406908       1.591615728e-12
  velocity_solve                 1       5.542120896e-08       3.155165018e-11
  Nodal_projection               6       0.0007908356666       7.034839654e-16

WallClockTime: 33 Pre: 0.00277 Solve: 2 Post: 1.05e-05 Total: 2.003
Solve time per cell: 2.261e-05

==============================================================================
Step: 34 dt: 0.05 Time: 1.65 to 1.7
CFL: 0.0406515 (conv: 0.0403586 diff: 0 src: 0.00345027 )

Godunov:
  System                     Iters      Initial residual        Final residual
  ----------------------------------------------------------------------------
  MAC_projection                 8        0.001897681279       9.389029877e-16
  tke_solve                      3          0.0299083509        1.84818133e-12
  sdr_solve                      4           28.40384734       6.394884622e-13
  velocity_solve                 1       5.627152788e-08       3.207034638e-11
  Nodal_projection               6       0.0007907797813       7.034991239e-16

WallClockTime: 34 Pre: 0.00277 Solve: 1.591 Post: 1.13e-05 Total: 1.594
Solve time per cell: 1.798e-05

==============================================================================
Step: 35 dt: 0.05 Time: 1.7 to 1.75
CFL: 0.0406608 (conv: 0.0403679 diff: 0 src: 0.00345125 )

Godunov:
  System                     Iters      Initial residual        Final residual
  ----------------------------------------------------------------------------
  MAC_projection                 8        0.001926452424       9.345157806e-16
  tke_solve                      3         0.02941531825       1.816633649e-12
  sdr_solve                      4           15.82121722       4.689582056e-13
  velocity_solve                 1       5.708453443e-08       3.256772629e-11
  Nodal_projection               6       0.0007907212045       7.035272146e-16

WallClockTime: 35 Pre: 0.00425 Solve: 1.595 Post: 1.01e-05 Total: 1.599
Solve time per cell: 1.803e-05

==============================================================================
Step: 36 dt: 0.05 Time: 1.75 to 1.8
CFL: 0.04067 (conv: 0.0403769 diff: 0 src: 0.0034524 )

Godunov:
  System                     Iters      Initial residual        Final residual
  ----------------------------------------------------------------------------
  MAC_projection                 8        0.001954790812       9.744953122e-16
  tke_solve                      3         0.02895503918       1.789300479e-12
  sdr_solve                      3       1.903124576e+16           5747.395108
  velocity_solve                 1       5.786051993e-08       3.304734264e-11
  Nodal_projection               6        0.000790666853       7.035679462e-16

WallClockTime: 36 Pre: 0.00295 Solve: 1.563 Post: 9.86e-06 Total: 1.566
Solve time per cell: 1.767e-05

==============================================================================
Step: 37 dt: 0.05 Time: 1.8 to 1.85
CFL: 0.0406792 (conv: 0.040386 diff: 0 src: 0.0034539 )

Godunov:
  System                     Iters      Initial residual        Final residual
  ----------------------------------------------------------------------------
  MAC_projection                 8        0.001982983149       1.023822699e-15
  tke_solve                      3         0.02855652218        1.76247298e-12
  sdr_solve                      4           1293.983343       2.228262019e-11
  velocity_solve                 1       5.859925523e-08       3.350386635e-11
  Nodal_projection               6       0.0007906254861       7.036025889e-16

WallClockTime: 37 Pre: 0.00259 Solve: 1.603 Post: 1e-05 Total: 1.605
Solve time per cell: 1.812e-05

==============================================================================
Step: 38 dt: 0.05 Time: 1.85 to 1.9
CFL: 0.0406883 (conv: 0.0403948 diff: 0 src: 0.00345573 )

Godunov:
  System                     Iters      Initial residual        Final residual
  ----------------------------------------------------------------------------
  MAC_projection                 8        0.002010680937       1.080322762e-15
  tke_solve                      3         0.02858594549       1.762539767e-12
  sdr_solve                      4           126.5460889       3.126388037e-12
  velocity_solve                 1       5.930043656e-08       3.393729742e-11
  Nodal_projection               6       0.0007906034083       7.036510104e-16

WallClockTime: 38 Pre: 0.00299 Solve: 1.588 Post: 9.11e-06 Total: 1.591
Solve time per cell: 1.794e-05

==============================================================================
Step: 39 dt: 0.05 Time: 1.9 to 1.95
CFL: 0.0406972 (conv: 0.0404035 diff: 0 src: 0.00345717 )

Godunov:
  System                     Iters      Initial residual        Final residual
  ----------------------------------------------------------------------------
  MAC_projection                 8        0.002037874101       1.151869094e-15
  tke_solve                      3         0.02821847251       1.739801012e-12
  sdr_solve                      4           43.95675188       1.051603249e-12
  velocity_solve                 1       5.996327168e-08       3.435118856e-11
  Nodal_projection               6       0.0007906074535       7.036772258e-16

WallClockTime: 39 Pre: 0.00285 Solve: 1.582 Post: 1.05e-05 Total: 1.585
Solve time per cell: 1.788e-05

==============================================================================
Step: 40 dt: 0.05 Time: 1.95 to 2
CFL: 0.0407058 (conv: 0.040412 diff: 0 src: 0.00345817 )

Godunov:
  System                     Iters      Initial residual        Final residual
  ----------------------------------------------------------------------------
  MAC_projection                 8        0.002064544696         1.1838124e-15
  tke_solve                      3         0.02790303566       1.720431089e-12
  sdr_solve                      4            21.8694557       4.831690603e-13
  velocity_solve                 1       6.058660063e-08       3.474376342e-11
  Nodal_projection               6       0.0007906390373       7.037011913e-16

WallClockTime: 40 Pre: 0.00407 Solve: 1.579 Post: 9.26e-06 Total: 1.583
Solve time per cell: 1.784e-05

==============================================================================
Step: 41 dt: 0.05 Time: 2 to 2.05
CFL: 0.0407141 (conv: 0.0404203 diff: 0 src: 0.00345878 )

Godunov:
  System                     Iters      Initial residual        Final residual
  ----------------------------------------------------------------------------
  MAC_projection                 8        0.002090632442       1.187670635e-15
  tke_solve                      3          0.0276682324       1.707554237e-12
  sdr_solve                      4       1.943482781e+12         0.01836154887
  velocity_solve                 1       6.116755102e-08       3.511146929e-11
  Nodal_projection               6       0.0007906865864       7.037778883e-16

WallClockTime: 41 Pre: 0.00518 Solve: 1.576 Post: 9.99e-06 Total: 1.581
Solve time per cell: 1.781e-05

==============================================================================
Step: 42 dt: 0.05 Time: 2.05 to 2.1
CFL: 0.0407222 (conv: 0.0404283 diff: 0 src: 0.003459 )

Godunov:
  System                     Iters      Initial residual        Final residual
  ----------------------------------------------------------------------------
  MAC_projection                 8        0.002117095433       1.201379016e-15
  tke_solve                      3         0.02749857082       1.697098191e-12
  sdr_solve                      4       1.492839004e+16           110.4870328
  velocity_solve                 1       6.170239253e-08       3.546141158e-11
  Nodal_projection               6       0.0007907417963       7.038020065e-16

WallClockTime: 42 Pre: 0.00274 Solve: 1.566 Post: 1.03e-05 Total: 1.569
Solve time per cell: 1.77e-05

==============================================================================
Step: 43 dt: 0.05 Time: 2.1 to 2.15
CFL: 0.04073 (conv: 0.0404362 diff: 0 src: 0.00345887 )

Godunov:
  System                     Iters      Initial residual        Final residual
  ----------------------------------------------------------------------------
  MAC_projection                 8         0.00214322493        1.26692412e-15
  tke_solve                      3         0.02738174172        1.68836993e-12
  sdr_solve                      4           1185.988867       3.001332516e-11
  velocity_solve                 1       6.219453041e-08       3.578470853e-11
  Nodal_projection               6       0.0007907990276       7.038435268e-16

WallClockTime: 43 Pre: 0.00284 Solve: 1.587 Post: 1.13e-05 Total: 1.59
Solve time per cell: 1.794e-05

==============================================================================
Step: 44 dt: 0.05 Time: 2.15 to 2.2
CFL: 0.0407375 (conv: 0.0404439 diff: 0 src: 0.0034585 )

Godunov:
  System                     Iters      Initial residual        Final residual
  ----------------------------------------------------------------------------
  MAC_projection                 8        0.002168413265       1.313456722e-15
  tke_solve                      3         0.02762489481       1.699530273e-12
  sdr_solve                      4           123.0629776       3.439026841e-12
  velocity_solve                 1       6.264535912e-08       3.608313648e-11
  Nodal_projection               6       0.0007908479066       7.039084356e-16

WallClockTime: 44 Pre: 0.00373 Solve: 1.575 Post: 9.6e-06 Total: 1.579
Solve time per cell: 1.781e-05

==============================================================================
Step: 45 dt: 0.05 Time: 2.2 to 2.25
CFL: 0.0407449 (conv: 0.0404514 diff: 0 src: 0.00345815 )

Godunov:
  System                     Iters      Initial residual        Final residual
  ----------------------------------------------------------------------------
  MAC_projection                 8        0.002192702588       1.380473969e-15
  tke_solve                      3         0.02747398657       1.691484626e-12
  sdr_solve                      4           43.22647828       1.136868377e-12
  velocity_solve                 1       6.305071309e-08       3.635314272e-11
  Nodal_projection               6       0.0007908805174       7.039699307e-16

WallClockTime: 45 Pre: 0.00375 Solve: 1.567 Post: 1.01e-05 Total: 1.571
Solve time per cell: 1.771e-05

==============================================================================
Step: 46 dt: 0.05 Time: 2.25 to 2.3
CFL: 0.0407521 (conv: 0.0404587 diff: 0 src: 0.0034578 )

Godunov:
  System                     Iters      Initial residual        Final residual
  ----------------------------------------------------------------------------
  MAC_projection                 8        0.002216046196       1.444069202e-15
  tke_solve                      3         0.02733240424       1.683800668e-12
  sdr_solve                      4           21.60870569       5.115907697e-13
  velocity_solve                 1       6.341037206e-08       3.660360903e-11
  Nodal_projection               6       0.0007908938956        7.04014718e-16

WallClockTime: 46 Pre: 0.00276 Solve: 1.566 Post: 9.87e-06 Total: 1.569
Solve time per cell: 1.77e-05

==============================================================================
Step: 47 dt: 0.05 Time: 2.3 to 2.35
CFL: 0.040759 (conv: 0.0404657 diff: 0 src: 0.0034573 )

Godunov:
  System                     Iters      Initial residual        Final residual
  ----------------------------------------------------------------------------
  MAC_projection                 8        0.002238412971       1.370507779e-15
  tke_solve                      3         0.02723310624       1.679691108e-12
  sdr_solve                      4       1.944079342e+15           20.32304423
  velocity_solve                 1       6.372435024e-08       3.682742999e-11
  Nodal_projection               6       0.0007908847828       7.040892288e-16

WallClockTime: 47 Pre: 0.00279 Solve: 1.602 Post: 1.01e-05 Total: 1.605
Solve time per cell: 1.811e-05

==============================================================================
Step: 48 dt: 0.05 Time: 2.35 to 2.4
CFL: 0.0407657 (conv: 0.0404726 diff: 0 src: 0.00345668 )

Godunov:
  System                     Iters      Initial residual        Final residual
  ----------------------------------------------------------------------------
  MAC_projection                 8        0.002259775519       1.397255385e-15
  tke_solve                      3         0.02717259545       1.674604899e-12
  sdr_solve                      4           178.2551769       7.105427358e-12
  velocity_solve                 1       6.399285013e-08       3.702638196e-11
  Nodal_projection               6       0.0007908770316       7.041636775e-16

WallClockTime: 48 Pre: 0.00366 Solve: 1.558 Post: 1.01e-05 Total: 1.562
Solve time per cell: 1.761e-05

==============================================================================
Step: 49 dt: 0.05 Time: 2.4 to 2.45
CFL: 0.0407722 (conv: 0.0404792 diff: 0 src: 0.00345597 )

Godunov:
  System                     Iters      Initial residual        Final residual
  ----------------------------------------------------------------------------
  MAC_projection                 8        0.002280101756       1.433748953e-15
  tke_solve                      3         0.02724498843       1.676095894e-12
  sdr_solve                      1       2.526124767e+14           7.537015697
  velocity_solve                 1       6.421628385e-08       3.719513586e-11
  Nodal_projection               6       0.0007910561892       7.041894889e-16

WallClockTime: 49 Pre: 0.00354 Solve: 1.508 Post: 1e-05 Total: 1.512
Solve time per cell: 1.705e-05

==============================================================================
Step: 50 dt: 0.05 Time: 2.45 to 2.5
CFL: 0.0407784 (conv: 0.0404857 diff: 0 src: 0.0034552 )

Godunov:
  System                     Iters      Initial residual        Final residual
  ----------------------------------------------------------------------------
  MAC_projection                 8        0.002299364823       1.464702925e-15
  tke_solve                      3         0.02721625985        1.67549221e-12
  sdr_solve                      3       4.356096906e+16           336804.9314
  velocity_solve                 1       6.439558575e-08       3.734079712e-11
  Nodal_projection               6       0.0007912280615       7.042558139e-16

WallClockTime: 50 Pre: 0.00282 Solve: 1.557 Post: 9.32e-06 Total: 1.56
Solve time per cell: 1.76e-05

==============================================================================
Step: 51 dt: 0.05 Time: 2.5 to 2.55
CFL: 0.0407845 (conv: 0.0404919 diff: 0 src: 0.00345436 )

Godunov:
  System                     Iters      Initial residual        Final residual
  ----------------------------------------------------------------------------
  MAC_projection                 8         0.00231753764       1.437137085e-15
  tke_solve                      3         0.02717482628       1.672740071e-12
  sdr_solve                      4       4.597842107e+16           416.2650165
  velocity_solve                 1       6.453685764e-08       3.746869481e-11
  Nodal_projection               6       0.0007913702007        7.04301485e-16

WallClockTime: 51 Pre: 0.00368 Solve: 1.591 Post: 9.36e-06 Total: 1.595
Solve time per cell: 1.798e-05

==============================================================================
Step: 52 dt: 0.05 Time: 2.55 to 2.6
CFL: 0.0407903 (conv: 0.0404979 diff: 0 src: 0.00345349 )

Godunov:
  System                     Iters      Initial residual        Final residual
  ----------------------------------------------------------------------------
  MAC_projection                 8         0.00233460018       1.501159223e-15
  tke_solve                      3         0.02762465023       1.708883035e-12
  sdr_solve                      4       4.626613513e+16           521.7159664
  velocity_solve                 1       6.463818103e-08       3.756639444e-11
  Nodal_projection               6       0.0007914871528       7.043457698e-16

WallClockTime: 52 Pre: 0.00398 Solve: 1.62 Post: 1.08e-05 Total: 1.624
Solve time per cell: 1.832e-05

==============================================================================
Step: 53 dt: 0.05 Time: 2.6 to 2.65
CFL: 0.0407959 (conv: 0.0405037 diff: 0 src: 0.00345261 )

Godunov:
  System                     Iters      Initial residual        Final residual
  ----------------------------------------------------------------------------
  MAC_projection                 8        0.002350538949       1.526421134e-15
  tke_solve                      3         0.02764121175        1.71901382e-12
  sdr_solve                      4        4.60503879e+16           444.9779717
  velocity_solve                 1       6.469879743e-08       3.764455414e-11
  Nodal_projection               6       0.0007915826102       7.044835226e-16

WallClockTime: 53 Pre: 0.00357 Solve: 1.597 Post: 9.2e-06 Total: 1.601
Solve time per cell: 1.805e-05

==============================================================================
Step: 54 dt: 0.05 Time: 2.65 to 2.7
CFL: 0.0408027 (conv: 0.0405107 diff: 0 src: 0.00345168 )

Godunov:
  System                     Iters      Initial residual        Final residual
  ----------------------------------------------------------------------------
  MAC_projection                 8        0.002365347876       1.498313192e-15
  tke_solve                      3         0.02764038716       1.707523012e-12
  sdr_solve                      4       4.625661266e+16           462.0411852
  velocity_solve                 1       6.472031799e-08       3.769429213e-11
  Nodal_projection               6        0.000791659102       7.045070816e-16

WallClockTime: 54 Pre: 0.00296 Solve: 1.572 Post: 1.02e-05 Total: 1.574
Solve time per cell: 1.776e-05

==============================================================================
Step: 55 dt: 0.05 Time: 2.7 to 2.75
CFL: 0.0408126 (conv: 0.0405208 diff: 0 src: 0.00345073 )

Godunov:
  System                     Iters      Initial residual        Final residual
  ----------------------------------------------------------------------------
  MAC_projection                 8        0.002379025512       1.479935965e-15
  tke_solve                      3          0.0276777916       1.713212905e-12
  sdr_solve                      4       4.627097858e+16           513.6436068
  velocity_solve                 1       6.470435565e-08       3.773337198e-11
  Nodal_projection               6       0.0007917116042       7.045390819e-16

WallClockTime: 55 Pre: 0.00293 Solve: 1.58 Post: 9.58e-06 Total: 1.583
Solve time per cell: 1.785e-05

==============================================================================
Step: 56 dt: 0.05 Time: 2.75 to 2.8
CFL: 0.0408223 (conv: 0.0405308 diff: 0 src: 0.00344976 )

Godunov:
  System                     Iters      Initial residual        Final residual
  ----------------------------------------------------------------------------
  MAC_projection                 8        0.002391578063       1.468877103e-15
  tke_solve                      3         0.02764913922       1.715266817e-12
  sdr_solve                      4       4.622974438e+16           473.7529736
  velocity_solve                 1       6.465278624e-08       3.774580648e-11
  Nodal_projection               6       0.0007917514922        7.04574486e-16

WallClockTime: 56 Pre: 0.00427 Solve: 1.586 Post: 9.99e-06 Total: 1.59
Solve time per cell: 1.792e-05

==============================================================================
Step: 57 dt: 0.05 Time: 2.8 to 2.85
CFL: 0.040832 (conv: 0.0405407 diff: 0 src: 0.00344878 )

Godunov:
  System                     Iters      Initial residual        Final residual
  ----------------------------------------------------------------------------
  MAC_projection                 8        0.002403016444        1.43233949e-15
  tke_solve                      3         0.02764999705       1.718708509e-12
  sdr_solve                      4       4.612026802e+16           494.6388481
  velocity_solve                 1       6.456753709e-08       3.773870105e-11
  Nodal_projection               6       0.0007917772548        7.04614984e-16

WallClockTime: 57 Pre: 0.00276 Solve: 1.58 Post: 9.53e-06 Total: 1.582
Solve time per cell: 1.785e-05

==============================================================================
Step: 58 dt: 0.05 Time: 2.85 to 2.9
CFL: 0.0408416 (conv: 0.0405505 diff: 0 src: 0.00344779 )

Godunov:
  System                     Iters      Initial residual        Final residual
  ----------------------------------------------------------------------------
  MAC_projection                 8        0.002413364633        1.46746764e-15
  tke_solve                      3         0.02765279516       1.720734666e-12
  sdr_solve                      4       4.618679352e+16           531.8704102
  velocity_solve                 1       6.445063327e-08        3.77120557e-11
  Nodal_projection               6       0.0007917920846       7.046973099e-16

WallClockTime: 58 Pre: 0.00332 Solve: 1.607 Post: 9.86e-06 Total: 1.611
Solve time per cell: 1.817e-05

==============================================================================
Step: 59 dt: 0.05 Time: 2.9 to 2.95
CFL: 0.040851 (conv: 0.0405602 diff: 0 src: 0.00344678 )

Godunov:
  System                     Iters      Initial residual        Final residual
  ----------------------------------------------------------------------------
  MAC_projection                 8        0.002422649806        1.50736628e-15
  tke_solve                      3         0.02765111411       1.722039178e-12
  sdr_solve                      4       4.624899685e+16           493.8957256
  velocity_solve                 1       6.430411226e-08       3.767297585e-11
  Nodal_projection               6       0.0007917961263       7.047651487e-16

WallClockTime: 59 Pre: 0.00275 Solve: 1.583 Post: 9.25e-06 Total: 1.585
Solve time per cell: 1.789e-05

==============================================================================
Step: 60 dt: 0.05 Time: 2.95 to 3
CFL: 0.0408603 (conv: 0.0405698 diff: 0 src: 0.00344577 )

Godunov:
  System                     Iters      Initial residual        Final residual
  ----------------------------------------------------------------------------
  MAC_projection                 8        0.002430903161       1.522148699e-15
  tke_solve                      3         0.02764772658       1.707189945e-12
  sdr_solve                      4        4.61492815e+16           500.0611259
  velocity_solve                 1       6.413000087e-08       3.761257972e-11
  Nodal_projection               6       0.0007917921739       7.048400342e-16

WallClockTime: 60 Pre: 0.00381 Solve: 1.562 Post: 9.48e-06 Total: 1.566
Solve time per cell: 1.766e-05

==============================================================================
Step: 61 dt: 0.05 Time: 3 to 3.05
CFL: 0.0408695 (conv: 0.0405792 diff: 0 src: 0.00344475 )

Godunov:
  System                     Iters      Initial residual        Final residual
  ----------------------------------------------------------------------------
  MAC_projection                 8        0.002438159944       1.583382405e-15
  tke_solve                      3         0.02764730439       1.712213704e-12
  sdr_solve                      4       4.615646691e+16           444.5158066
  velocity_solve                 1       6.393031526e-08       3.754152544e-11
  Nodal_projection               6       0.0007917820779       7.048931309e-16

WallClockTime: 61 Pre: 0.0041 Solve: 1.568 Post: 9.24e-06 Total: 1.572
Solve time per cell: 1.773e-05

==============================================================================
Step: 62 dt: 0.05 Time: 3.05 to 3.1
CFL: 0.0408786 (conv: 0.0405885 diff: 0 src: 0.00344362 )

Godunov:
  System                     Iters      Initial residual        Final residual
  ----------------------------------------------------------------------------
  MAC_projection                 8        0.002444457897       1.649362884e-15
  tke_solve                      3         0.02764565106        1.71657133e-12
  sdr_solve                      4       4.615324534e+16             487.82292
  velocity_solve                 1       6.370701655e-08       3.745448396e-11
  Nodal_projection               6       0.0007917638635       7.049618638e-16

WallClockTime: 62 Pre: 0.00297 Solve: 1.562 Post: 9.76e-06 Total: 1.565
Solve time per cell: 1.765e-05

==============================================================================
Step: 63 dt: 0.05 Time: 3.1 to 3.15
CFL: 0.0408875 (conv: 0.0405976 diff: 0 src: 0.00344262 )

Godunov:
  System                     Iters      Initial residual        Final residual
  ----------------------------------------------------------------------------
  MAC_projection                 8        0.002449838648       1.639842233e-15
  tke_solve                      3         0.02764698078       1.719124842e-12
  sdr_solve                      4       4.610300415e+16           463.8018839
  velocity_solve                 1       6.346208004e-08       3.735323162e-11
  Nodal_projection               6       0.0007917372364       7.050203463e-16

WallClockTime: 63 Pre: 0.0281 Solve: 1.588 Post: 9.98e-06 Total: 1.616
Solve time per cell: 1.795e-05

==============================================================================
Step: 64 dt: 0.05 Time: 3.15 to 3.2
CFL: 0.0408963 (conv: 0.0406067 diff: 0 src: 0.00344166 )

Godunov:
  System                     Iters      Initial residual        Final residual
  ----------------------------------------------------------------------------
  MAC_projection                 8        0.002454344992        1.61960831e-15
  tke_solve                      3         0.02764546671       1.720568132e-12
  sdr_solve                      4       4.623302824e+16           576.8625201
  velocity_solve                 1        6.31973549e-08       3.723954478e-11
  Nodal_projection               6        0.000791703088       7.050798222e-16

WallClockTime: 64 Pre: 0.00307 Solve: 1.568 Post: 1.03e-05 Total: 1.571
Solve time per cell: 1.773e-05

==============================================================================
Step: 65 dt: 0.05 Time: 3.2 to 3.25
CFL: 0.040905 (conv: 0.0406156 diff: 0 src: 0.00344074 )

Godunov:
  System                     Iters      Initial residual        Final residual
  ----------------------------------------------------------------------------
  MAC_projection                 8        0.002458019348       1.590077354e-15
  tke_solve                      3         0.02764452115       1.723204912e-12
  sdr_solve                      4       4.608345523e+16           493.9328604
  velocity_solve                 1       6.291471166e-08       3.711697616e-11
  Nodal_projection               6       0.0007916602005       7.051557202e-16

WallClockTime: 65 Pre: 0.00282 Solve: 1.561 Post: 1.18e-05 Total: 1.564
Solve time per cell: 1.765e-05

==============================================================================
Step: 66 dt: 0.05 Time: 3.25 to 3.3
CFL: 0.0409135 (conv: 0.0406243 diff: 0 src: 0.00343989 )

Godunov:
  System                     Iters      Initial residual        Final residual
  ----------------------------------------------------------------------------
  MAC_projection                 8         0.00246090728       1.454023534e-15
  tke_solve                      3         0.02765070987       1.707467501e-12
  sdr_solve                      4       4.613188786e+16           501.6594192
  velocity_solve                 1       6.272663278e-08        3.70370401e-11
  Nodal_projection               6       0.0007916097253         7.0523596e-16

WallClockTime: 66 Pre: 0.00288 Solve: 1.571 Post: 9.98e-06 Total: 1.574
Solve time per cell: 1.776e-05

==============================================================================
Step: 67 dt: 0.05 Time: 3.3 to 3.35
CFL: 0.0409219 (conv: 0.0406329 diff: 0 src: 0.0034392 )

Godunov:
  System                     Iters      Initial residual        Final residual
  ----------------------------------------------------------------------------
  MAC_projection                 8        0.002519416717       1.487769326e-15
  tke_solve                      3         0.02764494364        1.71224146e-12
  sdr_solve                      4       4.610824256e+16           495.7133784
  velocity_solve                 1       6.339661773e-08       3.738875876e-11
  Nodal_projection               6       0.0007915572502       7.052622147e-16

WallClockTime: 67 Pre: 0.00301 Solve: 1.582 Post: 1.01e-05 Total: 1.585
Solve time per cell: 1.788e-05

==============================================================================
Step: 68 dt: 0.05 Time: 3.35 to 3.4
CFL: 0.0409301 (conv: 0.0406413 diff: 0 src: 0.00343855 )

Godunov:
  System                     Iters      Initial residual        Final residual
  ----------------------------------------------------------------------------
  MAC_projection                 8        0.002587129407       1.466275018e-15
  tke_solve                      3         0.02764024841       1.717154197e-12
  sdr_solve                      4       4.619789763e+16           515.9976924
  velocity_solve                 1       6.402947683e-08       3.772804291e-11
  Nodal_projection               6       0.0007915005377       7.053387488e-16

WallClockTime: 68 Pre: 0.00306 Solve: 1.558 Post: 1.03e-05 Total: 1.561
Solve time per cell: 1.76e-05

==============================================================================
Step: 69 dt: 0.05 Time: 3.4 to 3.45
CFL: 0.0409382 (conv: 0.0406495 diff: 0 src: 0.00343796 )

Godunov:
  System                     Iters      Initial residual        Final residual
  ----------------------------------------------------------------------------
  MAC_projection                 8        0.002586981039       1.431146868e-15
  tke_solve                      3         0.02763490634       1.719235865e-12
  sdr_solve                      4       4.613617788e+16           513.0811627
  velocity_solve                 1       6.462488678e-08       3.804245807e-11
  Nodal_projection               6       0.0007914407666       7.054249708e-16

WallClockTime: 69 Pre: 0.00276 Solve: 1.6 Post: 1e-05 Total: 1.603
Solve time per cell: 1.808e-05

==============================================================================
Step: 70 dt: 0.05 Time: 3.45 to 3.5
CFL: 0.0409462 (conv: 0.0406576 diff: 0 src: 0.00343739 )

Godunov:
  System                     Iters      Initial residual        Final residual
  ----------------------------------------------------------------------------
  MAC_projection                 8        0.002465439958       1.382818556e-15
  tke_solve                      3         0.02764712575       1.720512621e-12
  sdr_solve                      4        4.61474149e+16            566.697233
  velocity_solve                 1       6.518256157e-08       3.833378059e-11
  Nodal_projection               6       0.0007913759108       7.054646589e-16

WallClockTime: 70 Pre: 0.00298 Solve: 1.584 Post: 9.93e-06 Total: 1.587
Solve time per cell: 1.791e-05

==============================================================================
Step: 71 dt: 0.05 Time: 3.5 to 3.55
CFL: 0.040954 (conv: 0.0406655 diff: 0 src: 0.00343685 )

Godunov:
  System                     Iters      Initial residual        Final residual
  ----------------------------------------------------------------------------
  MAC_projection                 8        0.002465034936       1.430387926e-15
  tke_solve                      3         0.02764775771       1.723066134e-12
  sdr_solve                      4       4.614577716e+16            493.797405
  velocity_solve                 1       6.570238043e-08       3.860733955e-11
  Nodal_projection               6       0.0007913067744       7.055843768e-16

WallClockTime: 71 Pre: 0.00394 Solve: 1.56 Post: 1.14e-05 Total: 1.564
Solve time per cell: 1.763e-05

==============================================================================
Step: 72 dt: 0.05 Time: 3.55 to 3.6
CFL: 0.0409616 (conv: 0.0406733 diff: 0 src: 0.00343634 )

Godunov:
  System                     Iters      Initial residual        Final residual
  ----------------------------------------------------------------------------
  MAC_projection                 8        0.002464098806       1.421822729e-15
  tke_solve                      3         0.02764868223       1.706135233e-12
  sdr_solve                      4       4.619175427e+16            484.191748
  velocity_solve                 1       6.618441262e-08       3.885425315e-11
  Nodal_projection               6        0.000791234204       7.056069117e-16

WallClockTime: 72 Pre: 0.00429 Solve: 1.573 Post: 9.61e-06 Total: 1.578
Solve time per cell: 1.778e-05

==============================================================================
Step: 73 dt: 0.05 Time: 3.6 to 3.65
CFL: 0.040969 (conv: 0.0406809 diff: 0 src: 0.00343587 )

Godunov:
  System                     Iters      Initial residual        Final residual
  ----------------------------------------------------------------------------
  MAC_projection                 8        0.002462670833       1.416998029e-15
  tke_solve                      3          0.0276429444       1.712213704e-12
  sdr_solve                      4       4.615792704e+16           511.6277868
  velocity_solve                 1       6.662889618e-08       3.908873225e-11
  Nodal_projection               6       0.0007911588315       7.056867197e-16

WallClockTime: 73 Pre: 0.00289 Solve: 1.604 Post: 1.27e-05 Total: 1.607
Solve time per cell: 1.813e-05

==============================================================================
Step: 74 dt: 0.05 Time: 3.65 to 3.7
CFL: 0.0409763 (conv: 0.0406883 diff: 0 src: 0.00343542 )

Godunov:
  System                     Iters      Initial residual        Final residual
  ----------------------------------------------------------------------------
  MAC_projection                 8        0.002460790708        1.51701568e-15
  tke_solve                      3         0.02764387836       1.717015419e-12
  sdr_solve                      4       4.617714001e+16           447.6194718
  velocity_solve                 1       6.703633559e-08         3.9296566e-11
  Nodal_projection               6       0.0007910816616       7.057263375e-16

WallClockTime: 74 Pre: 0.00392 Solve: 1.566 Post: 9.6e-06 Total: 1.57
Solve time per cell: 1.77e-05

==============================================================================
Step: 75 dt: 0.05 Time: 3.7 to 3.75
CFL: 0.0409835 (conv: 0.0406955 diff: 0 src: 0.003435 )

Godunov:
  System                     Iters      Initial residual        Final residual
  ----------------------------------------------------------------------------
  MAC_projection                 8        0.002458498673       1.570792107e-15
  tke_solve                      3         0.02763500134       1.719041576e-12
  sdr_solve                      4       4.615170965e+16           504.7331293
  velocity_solve                 1       6.740498826e-08       3.948485983e-11
  Nodal_projection               6       0.0007910032022       7.058236603e-16

WallClockTime: 75 Pre: 0.00279 Solve: 1.616 Post: 9.72e-06 Total: 1.619
Solve time per cell: 1.827e-05

==============================================================================
Step: 76 dt: 0.05 Time: 3.75 to 3.8
CFL: 0.0409904 (conv: 0.0407026 diff: 0 src: 0.00343462 )

Godunov:
  System                     Iters      Initial residual        Final residual
  ----------------------------------------------------------------------------
  MAC_projection                 8        0.002455833807       1.562335331e-15
  tke_solve                      3         0.02764283693       1.721428555e-12
  sdr_solve                      4       4.610298682e+16           545.3357048
  velocity_solve                 1       6.773729133e-08       3.965183737e-11
  Nodal_projection               6       0.0007909245692       7.058859991e-16

WallClockTime: 76 Pre: 0.00441 Solve: 1.566 Post: 1.29e-05 Total: 1.571
Solve time per cell: 1.77e-05

==============================================================================
Step: 77 dt: 0.05 Time: 3.8 to 3.85
CFL: 0.0409972 (conv: 0.0407095 diff: 0 src: 0.00343427 )

Godunov:
  System                     Iters      Initial residual        Final residual
  ----------------------------------------------------------------------------
  MAC_projection                 8        0.002452818249       1.548186492e-15
  tke_solve                      3         0.02763783938       1.720984466e-12
  sdr_solve                      4       4.612636249e+16           491.2991981
  velocity_solve                 1       6.803318442e-08       3.980460406e-11
  Nodal_projection               6       0.0007908461241       7.059498467e-16

WallClockTime: 77 Pre: 0.00432 Solve: 1.589 Post: 9.51e-06 Total: 1.593
Solve time per cell: 1.796e-05

==============================================================================
Step: 78 dt: 0.05 Time: 3.85 to 3.9
CFL: 0.0410038 (conv: 0.0407162 diff: 0 src: 0.00343395 )

Godunov:
  System                     Iters      Initial residual        Final residual
  ----------------------------------------------------------------------------
  MAC_projection                 8        0.002449491518       1.576050488e-15
  tke_solve                      3         0.02763309381       1.705469099e-12
  sdr_solve                      4       4.612254818e+16           493.3266772
  velocity_solve                 1       6.829329635e-08       3.993250175e-11
  Nodal_projection               6       0.0007907695128       7.060424189e-16

WallClockTime: 78 Pre: 0.00519 Solve: 1.588 Post: 1.07e-05 Total: 1.594
Solve time per cell: 1.795e-05

==============================================================================
Step: 79 dt: 0.05 Time: 3.9 to 3.95
CFL: 0.0410103 (conv: 0.0407228 diff: 0 src: 0.00343371 )

Godunov:
  System                     Iters      Initial residual        Final residual
  ----------------------------------------------------------------------------
  MAC_projection                 8        0.002445886106       1.586079358e-15
  tke_solve                      3         0.02764565986       1.711519815e-12
  sdr_solve                      4       4.613998853e+16           471.0733985
  velocity_solve                 1        6.85184709e-08       4.004263587e-11
  Nodal_projection               6        0.000790696172       7.061146773e-16

WallClockTime: 79 Pre: 0.0149 Solve: 1.558 Post: 1e-05 Total: 1.573
Solve time per cell: 1.761e-05

==============================================================================
Step: 80 dt: 0.05 Time: 3.95 to 4
CFL: 0.0410165 (conv: 0.0407291 diff: 0 src: 0.00343347 )

Godunov:
  System                     Iters      Initial residual        Final residual
  ----------------------------------------------------------------------------
  MAC_projection                 8        0.002442035722       1.604402375e-15
  tke_solve                      3         0.02764249737       1.715766418e-12
  sdr_solve                      4       4.614409879e+16           487.7777497
  velocity_solve                 1       6.870950919e-08       4.013678279e-11
  Nodal_projection               6       0.0007906254528       7.061944035e-16

WallClockTime: 80 Pre: 0.00369 Solve: 1.561 Post: 1e-05 Total: 1.565
Solve time per cell: 1.765e-05

==============================================================================
Step: 81 dt: 0.05 Time: 4 to 4.05
CFL: 0.0410226 (conv: 0.0407353 diff: 0 src: 0.00343323 )

Godunov:
  System                     Iters      Initial residual        Final residual
  ----------------------------------------------------------------------------
  MAC_projection                 8        0.002437970783       1.679483375e-15
  tke_solve                      3         0.02763767087       1.720040776e-12
  sdr_solve                      4       4.604980666e+16             491.07477
  velocity_solve                 1       6.886709869e-08       4.020961342e-11
  Nodal_projection               6       0.0007905585916       7.062585199e-16

WallClockTime: 81 Pre: 0.00398 Solve: 1.591 Post: 1.11e-05 Total: 1.595
Solve time per cell: 1.799e-05

==============================================================================
Step: 82 dt: 0.05 Time: 4.05 to 4.1
CFL: 0.0410286 (conv: 0.0407413 diff: 0 src: 0.0034331 )

Godunov:
  System                     Iters      Initial residual        Final residual
  ----------------------------------------------------------------------------
  MAC_projection                 8        0.002433719024       1.684850176e-15
  tke_solve                      3         0.02763552294       1.719735465e-12
  sdr_solve                      4        4.61531154e+16            537.456575
  velocity_solve                 1       6.899286831e-08       4.026645684e-11
  Nodal_projection               6        0.000790495415       7.062863495e-16

WallClockTime: 82 Pre: 0.00273 Solve: 1.573 Post: 1e-05 Total: 1.576
Solve time per cell: 1.778e-05

==============================================================================
Step: 83 dt: 0.05 Time: 4.1 to 4.15
CFL: 0.0410344 (conv: 0.0407472 diff: 0 src: 0.00343304 )

Godunov:
  System                     Iters      Initial residual        Final residual
  ----------------------------------------------------------------------------
  MAC_projection                 8        0.002429304978       1.725724598e-15
  tke_solve                      3         0.02763646396       1.721622844e-12
  sdr_solve                      4       4.624487841e+16           436.6116347
  velocity_solve                 1       6.908773642e-08       4.030376033e-11
  Nodal_projection               6       0.0007904368622       7.063599934e-16

WallClockTime: 83 Pre: 0.00346 Solve: 1.586 Post: 9.72e-06 Total: 1.59
Solve time per cell: 1.793e-05

==============================================================================
Step: 84 dt: 0.05 Time: 4.15 to 4.2
CFL: 0.04104 (conv: 0.0407529 diff: 0 src: 0.00343302 )

Godunov:
  System                     Iters      Initial residual        Final residual
  ----------------------------------------------------------------------------
  MAC_projection                 8        0.002424753505        1.80145612e-15
  tke_solve                      3          0.0276314863       1.706551567e-12
  sdr_solve                      4       4.610765663e+16           482.4002533
  velocity_solve                 1       6.915461093e-08       4.033040568e-11
  Nodal_projection               6       0.0007903815893       7.064181459e-16

WallClockTime: 84 Pre: 0.00375 Solve: 1.57 Post: 1.01e-05 Total: 1.574
Solve time per cell: 1.774e-05

==============================================================================
Step: 85 dt: 0.05 Time: 4.2 to 4.25
CFL: 0.0410455 (conv: 0.0407584 diff: 0 src: 0.00343304 )

Godunov:
  System                     Iters      Initial residual        Final residual
  ----------------------------------------------------------------------------
  MAC_projection                 8        0.002420091588       1.890306488e-15
  tke_solve                      3         0.02765396833       1.713490461e-12
  sdr_solve                      4       4.610115137e+16           459.0726874
  velocity_solve                 1        6.91915929e-08       4.033218204e-11
  Nodal_projection               6       0.0007903301786       7.065035382e-16

WallClockTime: 85 Pre: 0.00282 Solve: 1.577 Post: 9.89e-06 Total: 1.58
Solve time per cell: 1.782e-05

==============================================================================
Step: 86 dt: 0.05 Time: 4.25 to 4.3
CFL: 0.0410508 (conv: 0.0407637 diff: 0 src: 0.0034331 )

Godunov:
  System                     Iters      Initial residual        Final residual
  ----------------------------------------------------------------------------
  MAC_projection                 8        0.002415322655       1.862740647e-15
  tke_solve                      3         0.02764369844       1.716654596e-12
  sdr_solve                      4       4.610078897e+16           506.0345172
  velocity_solve                 1       6.919903761e-08       4.032330025e-11
  Nodal_projection               6       0.0007902814915       7.065658779e-16

WallClockTime: 86 Pre: 0.0031 Solve: 1.583 Post: 1e-05 Total: 1.586
Solve time per cell: 1.789e-05

==============================================================================
Step: 87 dt: 0.05 Time: 4.3 to 4.35
CFL: 0.0410559 (conv: 0.0407688 diff: 0 src: 0.00343318 )

Godunov:
  System                     Iters      Initial residual        Final residual
  ----------------------------------------------------------------------------
  MAC_projection                 8         0.00241046978       1.865586678e-15
  tke_solve                      3          0.0276326942       1.718791776e-12
  sdr_solve                      4       4.612212562e+16           505.7172702
  velocity_solve                 1       6.917726836e-08        4.02966549e-11
  Nodal_projection               6       0.0007902369929       7.066317107e-16

WallClockTime: 87 Pre: 0.003 Solve: 1.564 Post: 9.88e-06 Total: 1.567
Solve time per cell: 1.768e-05

==============================================================================
Step: 88 dt: 0.05 Time: 4.35 to 4.4
CFL: 0.0410609 (conv: 0.0407738 diff: 0 src: 0.00343328 )

Godunov:
  System                     Iters      Initial residual        Final residual
  ----------------------------------------------------------------------------
  MAC_projection                 8        0.002405554808       1.944381071e-15
  tke_solve                      3         0.02763477694       1.721262022e-12
  sdr_solve                      4       4.596406846e+16            536.004192
  velocity_solve                 1       6.912746642e-08       4.025579869e-11
  Nodal_projection               6       0.0007901977176       7.066649046e-16

WallClockTime: 88 Pre: 0.00447 Solve: 1.59 Post: 1.01e-05 Total: 1.594
Solve time per cell: 1.797e-05

==============================================================================
Step: 89 dt: 0.05 Time: 4.4 to 4.45
CFL: 0.0410657 (conv: 0.0407786 diff: 0 src: 0.00343342 )

Godunov:
  System                     Iters      Initial residual        Final residual
  ----------------------------------------------------------------------------
  MAC_projection                 8        0.002400596986       1.959478586e-15
  tke_solve                      3         0.02763764424       1.722122445e-12
  sdr_solve                      4       4.615098571e+16           475.4922494
  velocity_solve                 1       6.905062477e-08       4.020250799e-11
  Nodal_projection               6       0.0007901623724       7.067719898e-16

WallClockTime: 89 Pre: 0.00276 Solve: 1.572 Post: 1.23e-05 Total: 1.575
Solve time per cell: 1.777e-05

==============================================================================
Step: 90 dt: 0.05 Time: 4.45 to 4.5
CFL: 0.0410703 (conv: 0.0407832 diff: 0 src: 0.00343358 )

Godunov:
  System                     Iters      Initial residual        Final residual
  ----------------------------------------------------------------------------
  MAC_projection                 8        0.002395613889       2.043666885e-15
  tke_solve                      3          0.0276224134       1.705385833e-12
[...]
  Nodal_projection               6       0.0007906336079       7.137534777e-16

WallClockTime: 1487 Pre: 0.00288 Solve: 1.538 Post: 1.12e-05 Total: 1.54
Solve time per cell: 1.738e-05

==============================================================================
Step: 1488 dt: 0.05 Time: 74.35 to 74.4
CFL: 0.0407964 (conv: 0.0405114 diff: 0 src: 0.00340961 )

Godunov:
  System                     Iters      Initial residual        Final residual
  ----------------------------------------------------------------------------
  MAC_projection                 8        0.002345270454       5.766891684e-15
  tke_solve                      3         0.02751925807       1.701916386e-12
  sdr_solve                      2        3.79618376e+16           11046.98958
  velocity_solve                 1       3.538346149e-08        2.08046913e-11
  Nodal_projection               6       0.0007906125452       7.138058713e-16

WallClockTime: 1488 Pre: 0.00364 Solve: 1.545 Post: 1.12e-05 Total: 1.549
Solve time per cell: 1.747e-05

==============================================================================
Step: 1489 dt: 0.05 Time: 74.4 to 74.45
CFL: 0.0407964 (conv: 0.0405114 diff: 0 src: 0.00340979 )

Godunov:
  System                     Iters      Initial residual        Final residual
  ----------------------------------------------------------------------------
  MAC_projection                 8        0.002345290847        5.76442343e-15
  tke_solve                      3           0.027518939       1.699473895e-12
  sdr_solve                      2       3.797020648e+16           59158.17872
  velocity_solve                 1       3.537822479e-08       2.079936223e-11
  Nodal_projection               6       0.0007905866246       7.137827268e-16

WallClockTime: 1489 Pre: 0.00346 Solve: 1.528 Post: 9.41e-06 Total: 1.532
Solve time per cell: 1.727e-05

==============================================================================
Step: 1490 dt: 0.05 Time: 74.45 to 74.5
CFL: 0.0407964 (conv: 0.0405114 diff: 0 src: 0.00340996 )

Godunov:
  System                     Iters      Initial residual        Final residual
  ----------------------------------------------------------------------------
  MAC_projection                 8        0.002345310971       5.760178101e-15
  tke_solve                      3         0.02751910612       1.704136832e-12
  sdr_solve                      2       3.797521794e+16           54424.98776
  velocity_solve                 1       3.537298632e-08       2.079580952e-11
  Nodal_projection               6       0.0007905559524       7.138083413e-16

WallClockTime: 1490 Pre: 0.00289 Solve: 1.559 Post: 9.81e-06 Total: 1.562
Solve time per cell: 1.762e-05

==============================================================================
Step: 1491 dt: 0.05 Time: 74.5 to 74.55
CFL: 0.0407964 (conv: 0.0405113 diff: 0 src: 0.00341014 )

Godunov:
  System                     Iters      Initial residual        Final residual
  ----------------------------------------------------------------------------
  MAC_projection                 8        0.002345330836       5.758607702e-15
  tke_solve                      3         0.02751905819       1.707134434e-12
  sdr_solve                      2       3.797810924e+16           35014.39861
  velocity_solve                 1       3.536774251e-08       2.079225681e-11
  Nodal_projection               6       0.0007905210622          7.137982e-16

WallClockTime: 1491 Pre: 0.00435 Solve: 1.527 Post: 1e-05 Total: 1.531
Solve time per cell: 1.725e-05

==============================================================================
Step: 1492 dt: 0.05 Time: 74.55 to 74.6
CFL: 0.0407964 (conv: 0.0405113 diff: 0 src: 0.00341032 )

Godunov:
  System                     Iters      Initial residual        Final residual
  ----------------------------------------------------------------------------
  MAC_projection                 8        0.002345350456       5.771785841e-15
  tke_solve                      3         0.02751942353       1.708605479e-12
  sdr_solve                      2       3.798140617e+16           64480.81646
  velocity_solve                 1       3.536249693e-08       2.079225681e-11
  Nodal_projection               6        0.000790481993       7.137814413e-16

WallClockTime: 1492 Pre: 0.00342 Solve: 1.545 Post: 9.5e-06 Total: 1.548
Solve time per cell: 1.746e-05

==============================================================================
Step: 1493 dt: 0.05 Time: 74.6 to 74.65
CFL: 0.0407964 (conv: 0.0405113 diff: 0 src: 0.0034105 )

Godunov:
  System                     Iters      Initial residual        Final residual
  ----------------------------------------------------------------------------
  MAC_projection                 8         0.00234536984       5.769824112e-15
  tke_solve                      3         0.02751679674       1.709299369e-12
  sdr_solve                      2       3.794713751e+16           17778.48262
  velocity_solve                 1       3.535725313e-08       2.078515138e-11
  Nodal_projection               6       0.0007904388182       7.137672138e-16

WallClockTime: 1493 Pre: 0.0029 Solve: 1.558 Post: 1.09e-05 Total: 1.561
Solve time per cell: 1.761e-05

==============================================================================
Step: 1494 dt: 0.05 Time: 74.65 to 74.7
CFL: 0.0407964 (conv: 0.0405113 diff: 0 src: 0.00341067 )

Godunov:
  System                     Iters      Initial residual        Final residual
  ----------------------------------------------------------------------------
  MAC_projection                 8           0.002345389        5.77145211e-15
  tke_solve                      3           0.027519258        1.70188863e-12
  sdr_solve                      2       3.796183761e+16           11045.61255
  velocity_solve                 1       3.535201287e-08       2.078337502e-11
  Nodal_projection               6       0.0007903917084       7.137911773e-16

WallClockTime: 1494 Pre: 0.00289 Solve: 1.557 Post: 1.02e-05 Total: 1.56
Solve time per cell: 1.76e-05

==============================================================================
Step: 1495 dt: 0.05 Time: 74.7 to 74.75
CFL: 0.0407964 (conv: 0.0405112 diff: 0 src: 0.00341085 )

Godunov:
  System                     Iters      Initial residual        Final residual
  ----------------------------------------------------------------------------
  MAC_projection                 8        0.002345407946       5.769558144e-15
  tke_solve                      3         0.02751893891       1.699446139e-12
  sdr_solve                      2        3.79702065e+16           59153.90827
  velocity_solve                 1       3.534677084e-08       2.078159866e-11
  Nodal_projection               6       0.0007903408656       7.137440213e-16

WallClockTime: 1495 Pre: 0.00402 Solve: 1.53 Post: 1.25e-05 Total: 1.534
Solve time per cell: 1.73e-05

==============================================================================
Step: 1496 dt: 0.05 Time: 74.75 to 74.8
CFL: 0.0407964 (conv: 0.0405112 diff: 0 src: 0.00341102 )

Godunov:
  System                     Iters      Initial residual        Final residual
  ----------------------------------------------------------------------------
  MAC_projection                 8        0.002345426689       5.759192155e-15
  tke_solve                      3         0.02751910605       1.704192343e-12
  sdr_solve                      2       3.797521796e+16           54420.92051
  velocity_solve                 1       3.534153414e-08       2.077982231e-11
  Nodal_projection               6       0.0007902864993       7.138059888e-16

WallClockTime: 1496 Pre: 0.00373 Solve: 1.526 Post: 1.05e-05 Total: 1.529
Solve time per cell: 1.724e-05

==============================================================================
Step: 1497 dt: 0.05 Time: 74.8 to 74.85
CFL: 0.0407964 (conv: 0.0405112 diff: 0 src: 0.00341119 )

Godunov:
  System                     Iters      Initial residual        Final residual
  ----------------------------------------------------------------------------
  MAC_projection                 8        0.002345445238       5.759802018e-15
  tke_solve                      3         0.02751905814       1.707162189e-12
  sdr_solve                      2       3.797810927e+16           35011.87115
  velocity_solve                 1       3.533630455e-08       2.077271688e-11
  Nodal_projection               6       0.0007902288185       7.137828525e-16

WallClockTime: 1497 Pre: 0.00369 Solve: 1.527 Post: 1e-05 Total: 1.531
Solve time per cell: 1.726e-05

==============================================================================
Step: 1498 dt: 0.05 Time: 74.85 to 74.9
CFL: 0.0407964 (conv: 0.0405111 diff: 0 src: 0.00341136 )

Godunov:
  System                     Iters      Initial residual        Final residual
  ----------------------------------------------------------------------------
  MAC_projection                 8          0.0023454636       5.760525385e-15
  tke_solve                      3         0.02751942345       1.708605479e-12
  sdr_solve                      2        3.79814062e+16           64476.44844
  velocity_solve                 1       3.533107851e-08       2.077271688e-11
  Nodal_projection               6       0.0007901680373       7.137741721e-16

WallClockTime: 1498 Pre: 0.00286 Solve: 1.526 Post: 1e-05 Total: 1.528
Solve time per cell: 1.724e-05

==============================================================================
Step: 1499 dt: 0.05 Time: 74.9 to 74.95
CFL: 0.0407964 (conv: 0.0405111 diff: 0 src: 0.00341152 )

Godunov:
  System                     Iters      Initial residual        Final residual
  ----------------------------------------------------------------------------
  MAC_projection                 8        0.002345481782       5.758980397e-15
  tke_solve                      3         0.02751679668       1.709299369e-12
  sdr_solve                      2       3.794713753e+16           17777.24134
  velocity_solve                 1        3.53258649e-08       2.076738781e-11
  Nodal_projection               6       0.0007901043648       7.137901102e-16

WallClockTime: 1499 Pre: 0.00365 Solve: 1.575 Post: 9.77e-06 Total: 1.578
Solve time per cell: 1.78e-05

==============================================================================
Step: 1500 dt: 0.05 Time: 74.95 to 75
CFL: 0.0407964 (conv: 0.0405111 diff: 0 src: 0.00341167 )

Godunov:
  System                     Iters      Initial residual        Final residual
  ----------------------------------------------------------------------------
  MAC_projection                 8        0.002345499786       5.757184687e-15
  tke_solve                      3         0.02751925793        1.70188863e-12
  sdr_solve                      2       3.796183764e+16            11045.3672
  velocity_solve                 1        3.53206584e-08       2.076561145e-11
  Nodal_projection               6       0.0007900380137       7.137800236e-16

WallClockTime: 1500 Pre: 0.00419 Solve: 1.527 Post: 0.025 Total: 1.556
Solve time per cell: 1.726e-05

==============================================================================
Step: 1501 dt: 0.05 Time: 75 to 75.05
CFL: 0.0407964 (conv: 0.0405111 diff: 0 src: 0.00341182 )

Godunov:
  System                     Iters      Initial residual        Final residual
  ----------------------------------------------------------------------------
  MAC_projection                 8        0.002345517616       5.754535168e-15
  tke_solve                      3         0.02751893882       1.699446139e-12
  sdr_solve                      2       3.797020651e+16           59149.66528
  velocity_solve                 1         3.5315459e-08       2.076205874e-11
  Nodal_projection               6       0.0007899691698       7.137489795e-16

WallClockTime: 1501 Pre: 0.00287 Solve: 1.536 Post: 1.02e-05 Total: 1.539
Solve time per cell: 1.736e-05

==============================================================================
Step: 1502 dt: 0.05 Time: 75.05 to 75.1
CFL: 0.0407964 (conv: 0.040511 diff: 0 src: 0.00341194 )

Godunov:
  System                     Iters      Initial residual        Final residual
  ----------------------------------------------------------------------------
  MAC_projection                 8        0.002345535267       5.753418778e-15
  tke_solve                      3         0.02751910598       1.704164587e-12
  sdr_solve                      2       3.797521798e+16           54416.86791
  velocity_solve                 1       3.531027382e-08       2.075850603e-11
  Nodal_projection               6       0.0007898980559       7.137581909e-16

WallClockTime: 1502 Pre: 0.00409 Solve: 1.55 Post: 9.92e-06 Total: 1.554
Solve time per cell: 1.751e-05

==============================================================================
Step: 1503 dt: 0.05 Time: 75.1 to 75.15
CFL: 0.0407964 (conv: 0.040511 diff: 0 src: 0.00341206 )

Godunov:
  System                     Iters      Initial residual        Final residual
  ----------------------------------------------------------------------------
  MAC_projection                 8        0.002345552737       5.750569359e-15
  tke_solve                      3         0.02751905809       1.707189945e-12
  sdr_solve                      2       3.797810929e+16           35009.36201
  velocity_solve                 1       3.530510639e-08       2.075850603e-11
  Nodal_projection               6       0.0007898249098       7.137605451e-16

WallClockTime: 1503 Pre: 0.00424 Solve: 1.537 Post: 1.03e-05 Total: 1.541
Solve time per cell: 1.737e-05

==============================================================================
Step: 1504 dt: 0.05 Time: 75.15 to 75.2
CFL: 0.0407964 (conv: 0.040511 diff: 0 src: 0.00341216 )

Godunov:
  System                     Iters      Initial residual        Final residual
  ----------------------------------------------------------------------------
  MAC_projection                 8         0.00234557002       5.750630346e-15
  tke_solve                      3         0.02751942336       1.708633235e-12
  sdr_solve                      2       3.798140622e+16           64472.08591
  velocity_solve                 1       3.529994963e-08        2.07514006e-11
  Nodal_projection               6       0.0007897499563       7.137790756e-16

WallClockTime: 1504 Pre: 0.00287 Solve: 1.537 Post: 1.05e-05 Total: 1.54
Solve time per cell: 1.737e-05

==============================================================================
Step: 1505 dt: 0.05 Time: 75.2 to 75.25
CFL: 0.0407964 (conv: 0.040511 diff: 0 src: 0.00341224 )

Godunov:
  System                     Iters      Initial residual        Final residual
  ----------------------------------------------------------------------------
  MAC_projection                 8        0.002345587104       5.748976937e-15
  tke_solve                      3         0.02751679663       1.709299369e-12
  sdr_solve                      2       3.794713754e+16           17776.04582
  velocity_solve                 1       3.529480885e-08       2.074784788e-11
  Nodal_projection               6       0.0007897044309       7.137672072e-16

WallClockTime: 1505 Pre: 0.00329 Solve: 1.567 Post: 1.03e-05 Total: 1.57
Solve time per cell: 1.771e-05

==============================================================================
Step: 1506 dt: 0.05 Time: 75.25 to 75.3
CFL: 0.0407964 (conv: 0.040511 diff: 0 src: 0.0034123 )

Godunov:
  System                     Iters      Initial residual        Final residual
  ----------------------------------------------------------------------------
  MAC_projection                 8        0.002345603978       5.747885959e-15
  tke_solve                      3         0.02751925786       1.701944141e-12
  sdr_solve                      2       3.796183764e+16           11044.45895
  velocity_solve                 1       3.528968584e-08       2.074607153e-11
  Nodal_projection               6        0.000789702514       7.137371111e-16

WallClockTime: 1506 Pre: 0.00404 Solve: 1.54 Post: 1.03e-05 Total: 1.544
Solve time per cell: 1.74e-05

==============================================================================
Step: 1507 dt: 0.05 Time: 75.3 to 75.35
CFL: 0.0407963 (conv: 0.0405109 diff: 0 src: 0.00341234 )

Godunov:
  System                     Iters      Initial residual        Final residual
  ----------------------------------------------------------------------------
  MAC_projection                 8        0.002345620631       5.748138375e-15
  tke_solve                      3         0.02751893873       1.699446139e-12
  sdr_solve                      2       3.797020654e+16           59145.47174
  velocity_solve                 1       3.528457526e-08       2.074251881e-11
  Nodal_projection               6       0.0007897018441       7.137645619e-16

WallClockTime: 1507 Pre: 0.00314 Solve: 1.523 Post: 1.02e-05 Total: 1.526
Solve time per cell: 1.721e-05

==============================================================================
Step: 1508 dt: 0.05 Time: 75.35 to 75.4
CFL: 0.0407963 (conv: 0.0405109 diff: 0 src: 0.00341235 )

Godunov:
  System                     Iters      Initial residual        Final residual
  ----------------------------------------------------------------------------
  MAC_projection                 8        0.002345637042       5.746446003e-15
  tke_solve                      3         0.02751910591       1.704164587e-12
  sdr_solve                      2         3.7975218e+16           54412.82264
  velocity_solve                 1       3.527949133e-08       2.074074246e-11
  Nodal_projection               6       0.0007897023999       7.137922824e-16

WallClockTime: 1508 Pre: 0.0034 Solve: 1.549 Post: 9.69e-06 Total: 1.553
Solve time per cell: 1.751e-05

==============================================================================
Step: 1509 dt: 0.05 Time: 75.4 to 75.45
CFL: 0.0407963 (conv: 0.0405109 diff: 0 src: 0.00341234 )

Godunov:
  System                     Iters      Initial residual        Final residual
  ----------------------------------------------------------------------------
  MAC_projection                 8        0.002345653191       5.740259274e-15
  tke_solve                      3         0.02751905804       1.707189945e-12
  sdr_solve                      2       3.797810931e+16           35006.86569
  velocity_solve                 1       3.527442161e-08        2.07389661e-11
  Nodal_projection               6       0.0007897041502       7.137753483e-16

WallClockTime: 1509 Pre: 0.00321 Solve: 1.612 Post: 1.04e-05 Total: 1.615
Solve time per cell: 1.822e-05

==============================================================================
Step: 1510 dt: 0.05 Time: 75.45 to 75.5
CFL: 0.0407963 (conv: 0.0405109 diff: 0 src: 0.00341231 )

Godunov:
  System                     Iters      Initial residual        Final residual
  ----------------------------------------------------------------------------
  MAC_projection                 8        0.002345669058       5.740296544e-15
  tke_solve                      3         0.02751942328       1.708633235e-12
  sdr_solve                      2       3.798140624e+16           64467.70874
  velocity_solve                 1       3.526937498e-08       2.073541339e-11
  Nodal_projection               6       0.0007897070492       7.137535207e-16

WallClockTime: 1510 Pre: 0.00396 Solve: 1.529 Post: 1.04e-05 Total: 1.533
Solve time per cell: 1.728e-05

==============================================================================
Step: 1511 dt: 0.05 Time: 75.5 to 75.55
CFL: 0.0407962 (conv: 0.0405108 diff: 0 src: 0.00341224 )

Godunov:
  System                     Iters      Initial residual        Final residual
  ----------------------------------------------------------------------------
